
  Mrv1719 05181907473D          

 30 32  0  0  0  0            999 V2000
    1.9894   10.3327    3.3594 C   0  0  0  0  0  0  0  0  0  0  0  0
    2.1415    8.8551    2.9327 C   0  0  0  0  0  0  0  0  0  0  0  0
    2.5868    8.7153    1.4523 C   0  0  0  0  0  0  0  0  0  0  0  0
    2.7894    7.3220    1.0888 N   0  0  0  0  0  0  0  0  0  0  0  0
    4.1408    6.7784    1.1632 C   0  0  0  0  0  0  0  0  0  0  0  0
    4.6269    6.1837   -0.1130 C   0  0  0  0  0  0  0  0  0  0  0  0
    4.5822    6.9302   -1.3153 C   0  0  0  0  0  0  0  0  0  0  0  0
    4.9791    6.3524   -2.5353 C   0  0  0  0  0  0  0  0  0  0  0  0
    5.4522    5.0287   -2.5659 C   0  0  0  0  0  0  0  0  0  0  0  0
    5.5290    4.2838   -1.3750 C   0  0  0  0  0  0  0  0  0  0  0  0
    5.1221    4.8580   -0.1570 C   0  0  0  0  0  0  0  0  0  0  0  0
    1.6922    6.5318    0.7443 C   0  0  0  0  0  0  0  0  0  0  0  0
    0.5383    7.0154    0.6554 O   0  0  0  0  0  0  0  0  0  0  0  0
    1.7666    5.1502    0.4702 C   0  0  0  0  0  0  0  0  0  0  0  0
    1.6913    4.6764   -0.8588 C   0  0  0  0  0  0  0  0  0  0  0  0
    1.8251    3.3029   -1.1308 C   0  0  0  0  0  0  0  0  0  0  0  0
    2.0162    2.3843   -0.0768 C   0  0  0  0  0  0  0  0  0  0  0  0
    2.0523    2.8541    1.2521 C   0  0  0  0  0  0  0  0  0  0  0  0
    1.9323    4.2280    1.5248 C   0  0  0  0  0  0  0  0  0  0  0  0
    2.2203    0.6513   -0.3873 S   0  0  2  0  0  0  0  0  0  0  0  0
    3.5763    0.1421    0.3057 O   0  0  0  0  0  0  0  0  0  0  0  0
    2.3060    0.3240   -1.9561 O   0  0  0  0  0  0  0  0  0  0  0  0
    0.9168   -0.2158    0.3195 N   0  0  0  0  0  0  0  0  0  0  0  0
   -0.4052   -0.0867    0.0155 C   0  0  0  0  0  0  0  0  0  0  0  0
   -0.9089    0.5752   -1.1314 C   0  0  0  0  0  0  0  0  0  0  0  0
   -2.2971    0.6606   -1.3625 C   0  0  0  0  0  0  0  0  0  0  0  0
   -3.1970    0.0865   -0.4442 C   0  0  0  0  0  0  0  0  0  0  0  0
   -2.7091   -0.5691    0.6988 C   0  0  0  0  0  0  0  0  0  0  0  0
   -1.3225   -0.6580    0.9226 C   0  0  0  0  0  0  0  0  0  0  0  0
   -2.8786    1.4508   -2.7427 Cl  0  0  0  0  0  0  0  0  0  0  0  0
  1  2  1  0  0  0  0
  2  3  1  0  0  0  0
  3  4  1  0  0  0  0
  4  5  1  0  0  0  0
  5  6  1  0  0  0  0
  6  7  2  0  0  0  0
  7  8  1  0  0  0  0
  8  9  2  0  0  0  0
  9 10  1  0  0  0  0
 10 11  2  0  0  0  0
  6 11  1  0  0  0  0
  4 12  1  0  0  0  0
 12 13  2  0  0  0  0
 12 14  1  0  0  0  0
 14 15  2  0  0  0  0
 15 16  1  0  0  0  0
 16 17  2  0  0  0  0
 17 18  1  0  0  0  0
 18 19  2  0  0  0  0
 14 19  1  0  0  0  0
 17 20  1  0  0  0  0
 20 21  2  0  0  0  0
 20 22  2  0  0  0  0
 20 23  1  0  0  0  0
 23 24  1  0  0  0  0
 24 25  2  0  0  0  0
 25 26  1  0  0  0  0
 26 27  2  0  0  0  0
 27 28  1  0  0  0  0
 28 29  2  0  0  0  0
 24 29  1  0  0  0  0
 26 30  1  0  0  0  0
M  END
$$$$
