
  Mrv1719 05181907463D          

 27 30  0  0  0  0            999 V2000
    1.2296   -0.9880   -0.5685 C   0  0  0  0  0  0  0  0  0  0  0  0
   -0.0212   -0.2357   -0.3171 C   0  0  0  0  0  0  0  0  0  0  0  0
   -0.2479    1.0444   -0.8729 C   0  0  0  0  0  0  0  0  0  0  0  0
   -1.4543    1.7367   -0.6335 C   0  0  0  0  0  0  0  0  0  0  0  0
   -2.4666    1.1326    0.1556 C   0  0  0  0  0  0  0  0  0  0  0  0
   -2.2264   -0.1370    0.7275 C   0  0  0  0  0  0  0  0  0  0  0  0
   -1.0187   -0.8121    0.4961 C   0  0  0  0  0  0  0  0  0  0  0  0
   -3.7347    1.7292    0.3888 C   0  0  0  0  0  0  0  0  0  0  0  0
   -4.9275    1.2266   -0.2038 C   0  0  0  0  0  0  0  0  0  0  0  0
   -6.1693    1.7873    0.1701 C   0  0  0  0  0  0  0  0  0  0  0  0
   -6.2083    2.8431    1.0936 C   0  0  0  0  0  0  0  0  0  0  0  0
   -5.0553    3.3195    1.6222 N   0  0  0  0  0  0  0  0  0  0  0  0
   -3.8414    2.8032    1.3035 C   0  0  0  0  0  0  0  0  0  0  0  0
   -4.9392    0.1771   -1.1518 C   0  0  0  0  0  0  0  0  0  0  0  0
   -4.2470    0.0785   -2.3682 C   0  0  0  0  0  0  0  0  0  0  0  0
   -4.4897   -1.0319   -3.1157 N   0  0  0  0  0  0  0  0  0  0  0  0
   -5.3598   -1.9305   -2.6012 C   0  0  0  0  0  0  0  0  0  0  0  0
   -5.8970   -1.2891   -1.0609 S   0  0  0  0  0  0  0  0  0  0  0  0
   -5.8459   -3.0851   -3.1184 N   0  0  0  0  0  0  0  0  0  0  0  0
   -5.6369   -3.6381   -4.3485 C   0  0  0  0  0  0  0  0  0  0  0  0
   -6.6086   -4.5664   -4.7861 C   0  0  0  0  0  0  0  0  0  0  0  0
   -6.5283   -5.1485   -6.0637 C   0  0  0  0  0  0  0  0  0  0  0  0
   -5.4565   -4.8286   -6.9162 C   0  0  0  0  0  0  0  0  0  0  0  0
   -4.4592   -3.9353   -6.4802 C   0  0  0  0  0  0  0  0  0  0  0  0
   -4.5453   -3.3482   -5.2035 C   0  0  0  0  0  0  0  0  0  0  0  0
   -5.4011   -5.3733   -8.1557 O   0  0  0  0  0  0  0  0  0  0  0  0
   -1.6512    3.2725   -1.3303 Cl  0  0  0  0  0  0  0  0  0  0  0  0
  1  2  1  0  0  0  0
  2  3  2  0  0  0  0
  3  4  1  0  0  0  0
  4  5  2  0  0  0  0
  5  6  1  0  0  0  0
  6  7  2  0  0  0  0
  2  7  1  0  0  0  0
  5  8  1  0  0  0  0
  8  9  2  0  0  0  0
  9 10  1  0  0  0  0
 10 11  2  0  0  0  0
 11 12  1  0  0  0  0
 12 13  2  0  0  0  0
  8 13  1  0  0  0  0
  9 14  1  0  0  0  0
 14 15  2  0  0  0  0
 15 16  1  0  0  0  0
 16 17  2  0  0  0  0
 17 18  1  0  0  0  0
 14 18  1  0  0  0  0
 17 19  1  0  0  0  0
 19 20  1  0  0  0  0
 20 21  2  0  0  0  0
 21 22  1  0  0  0  0
 22 23  2  0  0  0  0
 23 24  1  0  0  0  0
 24 25  2  0  0  0  0
 20 25  1  0  0  0  0
 23 26  1  0  0  0  0
  4 27  1  0  0  0  0
M  END
$$$$
