
  Mrv1719 05181907243D          

 28 31  0  0  0  0            999 V2000
   -4.5561    6.5741   -3.1868 C   0  0  0  0  0  0  0  0  0  0  0  0
   -5.8378    5.9247   -2.8293 C   0  0  0  0  0  0  0  0  0  0  0  0
   -6.8291    5.6817   -3.8063 C   0  0  0  0  0  0  0  0  0  0  0  0
   -8.0513    5.0497   -3.4731 C   0  0  0  0  0  0  0  0  0  0  0  0
   -8.2951    4.7061   -2.1288 C   0  0  0  0  0  0  0  0  0  0  0  0
   -7.3177    4.9429   -1.1457 C   0  0  0  0  0  0  0  0  0  0  0  0
   -6.0925    5.5415   -1.4937 C   0  0  0  0  0  0  0  0  0  0  0  0
   -9.0267    4.8082   -4.3980 N   0  0  0  0  0  0  0  0  0  0  0  0
   -8.8637    4.4812   -5.7175 C   0  0  0  0  0  0  0  0  0  0  0  0
   -9.8493    4.7847   -6.4303 O   0  0  0  0  0  0  0  0  0  0  0  0
   -7.7527    3.8742   -6.2876 N   0  0  0  0  0  0  0  0  0  0  0  0
   -7.3927    4.0865   -7.6803 C   0  0  0  0  0  0  0  0  0  0  0  0
   -7.0564    2.7689   -8.4343 C   0  0  0  0  0  0  0  0  0  0  0  0
   -6.2160    1.9039   -7.6295 N   0  0  0  0  0  0  0  0  0  0  0  0
   -6.7010    1.6329   -6.2929 C   0  0  0  0  0  0  0  0  0  0  0  0
   -6.9135    2.9646   -5.5309 C   0  0  0  0  0  0  0  0  0  0  0  0
   -5.0331    1.3553   -8.0840 C   0  0  0  0  0  0  0  0  0  0  0  0
   -4.2569    0.4802   -7.4120 N   0  0  0  0  0  0  0  0  0  0  0  0
   -3.1381    0.0241   -8.0306 C   0  0  0  0  0  0  0  0  0  0  0  0
   -2.9443    0.5096   -9.2780 N   0  0  0  0  0  0  0  0  0  0  0  0
   -4.2214    1.5786   -9.6196 S   0  0  0  0  0  0  0  0  0  0  0  0
   -2.2596   -0.9180   -7.4267 C   0  0  0  0  0  0  0  0  0  0  0  0
   -2.0231   -0.9661   -6.0229 C   0  0  0  0  0  0  0  0  0  0  0  0
   -2.7001    0.2850   -4.8119 Br  0  0  0  0  0  0  0  0  0  0  0  0
   -1.2065   -1.9761   -5.4742 C   0  0  0  0  0  0  0  0  0  0  0  0
   -0.5935   -2.9299   -6.3030 C   0  0  0  0  0  0  0  0  0  0  0  0
   -0.7792   -2.8668   -7.6926 C   0  0  0  0  0  0  0  0  0  0  0  0
   -1.6007   -1.8696   -8.2479 C   0  0  0  0  0  0  0  0  0  0  0  0
  1  2  1  0  0  0  0
  2  3  2  0  0  0  0
  3  4  1  0  0  0  0
  4  5  2  0  0  0  0
  5  6  1  0  0  0  0
  6  7  2  0  0  0  0
  2  7  1  0  0  0  0
  4  8  1  0  0  0  0
  8  9  1  0  0  0  0
  9 10  2  0  0  0  0
  9 11  1  0  0  0  0
 11 12  1  0  0  0  0
 12 13  1  0  0  0  0
 13 14  1  0  0  0  0
 14 15  1  0  0  0  0
 15 16  1  0  0  0  0
 11 16  1  0  0  0  0
 14 17  1  0  0  0  0
 17 18  2  0  0  0  0
 18 19  1  0  0  0  0
 19 20  2  0  0  0  0
 20 21  1  0  0  0  0
 17 21  1  0  0  0  0
 19 22  1  0  0  0  0
 22 23  2  0  0  0  0
 23 24  1  0  0  0  0
 23 25  1  0  0  0  0
 25 26  2  0  0  0  0
 26 27  1  0  0  0  0
 27 28  2  0  0  0  0
 22 28  1  0  0  0  0
M  END
$$$$
