
  Mrv1719 05181907443D          

 28 31  0  0  0  0            999 V2000
    1.4557    0.3059   -0.1720 C   0  0  0  0  0  0  0  0  0  0  0  0
    0.0682    0.6884   -0.2418 O   0  0  0  0  0  0  0  0  0  0  0  0
   -0.4260    1.0875    0.9730 C   0  0  0  0  0  0  0  0  0  0  0  0
   -0.4541    2.4567    1.3072 C   0  0  0  0  0  0  0  0  0  0  0  0
   -0.9448    2.8677    2.5602 C   0  0  0  0  0  0  0  0  0  0  0  0
   -1.4067    1.9122    3.4851 C   0  0  0  0  0  0  0  0  0  0  0  0
   -1.3758    0.5356    3.1717 C   0  0  0  0  0  0  0  0  0  0  0  0
   -0.9136    0.1389    1.8946 C   0  0  0  0  0  0  0  0  0  0  0  0
   -1.8291   -0.3669    4.0917 N   0  0  0  0  0  0  0  0  0  0  0  0
   -1.3607   -1.6301    4.3482 C   0  0  0  0  0  0  0  0  0  0  0  0
   -2.2133   -2.3505    4.9199 O   0  0  0  0  0  0  0  0  0  0  0  0
   -0.1039   -2.1504    4.0513 N   0  0  0  0  0  0  0  0  0  0  0  0
    0.1208   -3.5782    3.8879 C   0  0  0  0  0  0  0  0  0  0  0  0
    1.3165   -4.0974    4.7357 C   0  0  0  0  0  0  0  0  0  0  0  0
    2.4674   -3.2300    4.6028 N   0  0  0  0  0  0  0  0  0  0  0  0
    2.2195   -1.8231    4.8300 C   0  0  0  0  0  0  0  0  0  0  0  0
    1.0769   -1.3192    3.9137 C   0  0  0  0  0  0  0  0  0  0  0  0
    3.7343   -3.6882    4.3084 C   0  0  0  0  0  0  0  0  0  0  0  0
    4.8422   -2.9253    4.2106 N   0  0  0  0  0  0  0  0  0  0  0  0
    6.0251   -3.5541    3.9926 C   0  0  0  0  0  0  0  0  0  0  0  0
    5.9330   -4.8988    3.8799 N   0  0  0  0  0  0  0  0  0  0  0  0
    4.2973   -5.3281    4.0602 S   0  0  0  0  0  0  0  0  0  0  0  0
    7.2569   -2.8424    3.9292 C   0  0  0  0  0  0  0  0  0  0  0  0
    8.4978   -3.5199    4.0381 C   0  0  0  0  0  0  0  0  0  0  0  0
    9.7164   -2.8151    4.0001 C   0  0  0  0  0  0  0  0  0  0  0  0
    9.7192   -1.4187    3.8441 C   0  0  0  0  0  0  0  0  0  0  0  0
    8.5015   -0.7258    3.7405 C   0  0  0  0  0  0  0  0  0  0  0  0
    7.2837   -1.4307    3.7832 C   0  0  0  0  0  0  0  0  0  0  0  0
  1  2  1  0  0  0  0
  2  3  1  0  0  0  0
  3  4  2  0  0  0  0
  4  5  1  0  0  0  0
  5  6  2  0  0  0  0
  6  7  1  0  0  0  0
  7  8  2  0  0  0  0
  3  8  1  0  0  0  0
  7  9  1  0  0  0  0
  9 10  1  0  0  0  0
 10 11  2  0  0  0  0
 10 12  1  0  0  0  0
 12 13  1  0  0  0  0
 13 14  1  0  0  0  0
 14 15  1  0  0  0  0
 15 16  1  0  0  0  0
 16 17  1  0  0  0  0
 12 17  1  0  0  0  0
 15 18  1  0  0  0  0
 18 19  2  0  0  0  0
 19 20  1  0  0  0  0
 20 21  2  0  0  0  0
 21 22  1  0  0  0  0
 18 22  1  0  0  0  0
 20 23  1  0  0  0  0
 23 24  2  0  0  0  0
 24 25  1  0  0  0  0
 25 26  2  0  0  0  0
 26 27  1  0  0  0  0
 27 28  2  0  0  0  0
 23 28  1  0  0  0  0
M  END
$$$$
