
  Mrv1719 05181907243D          

 28 31  0  0  0  0            999 V2000
   -7.1613    0.1266  -10.9687 C   0  0  0  0  0  0  0  0  0  0  0  0
   -8.6138   -0.1576  -10.9363 C   0  0  0  0  0  0  0  0  0  0  0  0
   -9.1057   -1.4724  -11.0984 C   0  0  0  0  0  0  0  0  0  0  0  0
  -10.4929   -1.7512  -11.0626 C   0  0  0  0  0  0  0  0  0  0  0  0
  -11.3980   -0.6809  -10.9012 C   0  0  0  0  0  0  0  0  0  0  0  0
  -10.9237    0.6337  -10.7406 C   0  0  0  0  0  0  0  0  0  0  0  0
   -9.5405    0.8922  -10.7503 C   0  0  0  0  0  0  0  0  0  0  0  0
  -10.9897   -3.0118  -11.2435 N   0  0  0  0  0  0  0  0  0  0  0  0
  -10.4116   -4.1972  -10.8822 C   0  0  0  0  0  0  0  0  0  0  0  0
  -10.7731   -5.1662  -11.5879 O   0  0  0  0  0  0  0  0  0  0  0  0
   -9.5066   -4.3833   -9.8513 N   0  0  0  0  0  0  0  0  0  0  0  0
   -8.4886   -5.4217   -9.9008 C   0  0  0  0  0  0  0  0  0  0  0  0
   -8.3887   -6.2402   -8.5819 C   0  0  0  0  0  0  0  0  0  0  0  0
   -8.4111   -5.3364   -7.4526 N   0  0  0  0  0  0  0  0  0  0  0  0
   -9.5584   -4.4618   -7.3826 C   0  0  0  0  0  0  0  0  0  0  0  0
   -9.5674   -3.5703   -8.6509 C   0  0  0  0  0  0  0  0  0  0  0  0
   -7.3755   -5.2169   -6.5541 C   0  0  0  0  0  0  0  0  0  0  0  0
   -7.2796   -4.3036   -5.5580 N   0  0  0  0  0  0  0  0  0  0  0  0
   -6.1762   -4.2542   -4.8543 N   0  0  0  0  0  0  0  0  0  0  0  0
   -5.1890   -5.1216   -5.1677 C   0  0  0  0  0  0  0  0  0  0  0  0
   -5.8599   -6.1009   -6.4615 S   0  0  0  0  0  0  0  0  0  0  0  0
   -3.9031   -5.2017   -4.5833 C   0  0  0  0  0  0  0  0  0  0  0  0
   -3.2313   -4.0569   -4.0743 C   0  0  0  0  0  0  0  0  0  0  0  0
   -3.9045   -2.3206   -4.1984 Br  0  0  0  0  0  0  0  0  0  0  0  0
   -1.9641   -4.1882   -3.4744 C   0  0  0  0  0  0  0  0  0  0  0  0
   -1.3411   -5.4434   -3.3890 C   0  0  0  0  0  0  0  0  0  0  0  0
   -1.9831   -6.5775   -3.9105 C   0  0  0  0  0  0  0  0  0  0  0  0
   -3.2528   -6.4571   -4.5024 C   0  0  0  0  0  0  0  0  0  0  0  0
  1  2  1  0  0  0  0
  2  3  2  0  0  0  0
  3  4  1  0  0  0  0
  4  5  2  0  0  0  0
  5  6  1  0  0  0  0
  6  7  2  0  0  0  0
  2  7  1  0  0  0  0
  4  8  1  0  0  0  0
  8  9  1  0  0  0  0
  9 10  2  0  0  0  0
  9 11  1  0  0  0  0
 11 12  1  0  0  0  0
 12 13  1  0  0  0  0
 13 14  1  0  0  0  0
 14 15  1  0  0  0  0
 15 16  1  0  0  0  0
 11 16  1  0  0  0  0
 14 17  1  0  0  0  0
 17 18  2  0  0  0  0
 18 19  1  0  0  0  0
 19 20  2  0  0  0  0
 20 21  1  0  0  0  0
 17 21  1  0  0  0  0
 20 22  1  0  0  0  0
 22 23  2  0  0  0  0
 23 24  1  0  0  0  0
 23 25  1  0  0  0  0
 25 26  2  0  0  0  0
 26 27  1  0  0  0  0
 27 28  2  0  0  0  0
 22 28  1  0  0  0  0
M  END
$$$$
