
  Mrv1719 05181907443D          

 22 24  0  0  0  0            999 V2000
   -1.2861   -1.7737    5.0698 C   0  0  0  0  0  0  0  0  0  0  0  0
   -0.1997   -2.7759    5.1717 C   0  0  0  0  0  0  0  0  0  0  0  0
    0.4899   -3.2203    4.0227 C   0  0  0  0  0  0  0  0  0  0  0  0
    1.5710   -4.1258    4.1119 C   0  0  0  0  0  0  0  0  0  0  0  0
    1.8869   -4.6777    5.3696 C   0  0  0  0  0  0  0  0  0  0  0  0
    1.1949   -4.2659    6.5229 C   0  0  0  0  0  0  0  0  0  0  0  0
    0.1755   -3.3009    6.4288 C   0  0  0  0  0  0  0  0  0  0  0  0
    2.2993   -4.5149    3.0264 N   0  0  0  0  0  0  0  0  0  0  0  0
    2.8690   -3.7326    2.0582 C   0  0  0  0  0  0  0  0  0  0  0  0
    3.3697   -4.3592    1.0944 O   0  0  0  0  0  0  0  0  0  0  0  0
    2.9544   -2.2411    2.0651 C   0  0  2  0  0  0  0  0  0  0  0  0
    1.9593   -1.6269    1.0372 C   0  0  0  0  0  0  0  0  0  0  0  0
    2.0329   -0.0800    1.0616 C   0  0  0  0  0  0  0  0  0  0  0  0
    3.3866    0.3409    0.7370 N   0  0  0  0  0  0  0  0  0  0  0  0
    4.3874   -0.1336    1.6909 C   0  0  0  0  0  0  0  0  0  0  0  0
    4.3898   -1.6886    1.7862 C   0  0  0  0  0  0  0  0  0  0  0  0
    3.7290    1.0788   -0.4022 C   0  0  0  0  0  0  0  0  0  0  0  0
    5.0339    1.4302   -0.6038 N   0  0  0  0  0  0  0  0  0  0  0  0
    5.5127    2.0955   -1.6835 C   0  0  0  0  0  0  0  0  0  0  0  0
    4.6067    2.4605   -2.6877 C   0  0  0  0  0  0  0  0  0  0  0  0
    3.2988    2.1524   -2.5213 N   0  0  0  0  0  0  0  0  0  0  0  0
    2.8357    1.4906   -1.4299 C   0  0  0  0  0  0  0  0  0  0  0  0
  1  2  1  0  0  0  0
  2  3  2  0  0  0  0
  3  4  1  0  0  0  0
  4  5  2  0  0  0  0
  5  6  1  0  0  0  0
  6  7  2  0  0  0  0
  2  7  1  0  0  0  0
  4  8  1  0  0  0  0
  8  9  1  0  0  0  0
  9 10  2  0  0  0  0
  9 11  1  0  0  0  0
 11 12  1  0  0  0  0
 12 13  1  0  0  0  0
 13 14  1  0  0  0  0
 14 15  1  0  0  0  0
 15 16  1  0  0  0  0
 11 16  1  0  0  0  0
 14 17  1  0  0  0  0
 17 18  2  0  0  0  0
 18 19  1  0  0  0  0
 19 20  2  0  0  0  0
 20 21  1  0  0  0  0
 21 22  2  0  0  0  0
 17 22  1  0  0  0  0
M  END
$$$$
