
  Mrv1719 05181907223D          

 27 30  0  0  0  0            999 V2000
   -5.1617    1.5971    1.7662 C   0  0  0  0  0  0  0  0  0  0  0  0
   -4.0756    2.5916    1.9301 C   0  0  0  0  0  0  0  0  0  0  0  0
   -2.7918    2.1913    2.3575 C   0  0  0  0  0  0  0  0  0  0  0  0
   -1.7307    3.1177    2.4790 C   0  0  0  0  0  0  0  0  0  0  0  0
   -1.9871    4.4814    2.2314 C   0  0  0  0  0  0  0  0  0  0  0  0
   -3.2666    4.9021    1.8264 C   0  0  0  0  0  0  0  0  0  0  0  0
   -4.3011    3.9612    1.6659 C   0  0  0  0  0  0  0  0  0  0  0  0
   -0.4800    2.7348    2.8647 N   0  0  0  0  0  0  0  0  0  0  0  0
    0.1640    1.5630    2.5689 C   0  0  0  0  0  0  0  0  0  0  0  0
    1.0512    1.2703    3.4047 O   0  0  0  0  0  0  0  0  0  0  0  0
   -0.0864    0.7232    1.4879 N   0  0  0  0  0  0  0  0  0  0  0  0
    0.2123   -0.7000    1.5369 C   0  0  0  0  0  0  0  0  0  0  0  0
    1.0115   -1.1908    0.2983 C   0  0  0  0  0  0  0  0  0  0  0  0
    0.4630   -0.6576   -0.9319 N   0  0  0  0  0  0  0  0  0  0  0  0
    0.2577    0.7744   -0.9646 C   0  0  0  0  0  0  0  0  0  0  0  0
   -0.6154    1.2255    0.2318 C   0  0  0  0  0  0  0  0  0  0  0  0
    0.1748   -1.4405   -2.0318 C   0  0  0  0  0  0  0  0  0  0  0  0
   -0.3084   -1.0016   -3.2120 N   0  0  0  0  0  0  0  0  0  0  0  0
   -0.4644   -1.9102   -4.2091 C   0  0  0  0  0  0  0  0  0  0  0  0
   -0.1173   -3.1744   -3.8802 N   0  0  0  0  0  0  0  0  0  0  0  0
    0.3939   -3.1633   -2.2593 S   0  0  0  0  0  0  0  0  0  0  0  0
   -0.9227   -1.5395   -5.5026 C   0  0  0  0  0  0  0  0  0  0  0  0
   -0.6898   -2.3723   -6.6258 C   0  0  0  0  0  0  0  0  0  0  0  0
   -1.0959   -1.9798   -7.9151 C   0  0  0  0  0  0  0  0  0  0  0  0
   -1.7515   -0.7513   -8.1039 C   0  0  0  0  0  0  0  0  0  0  0  0
   -2.0149    0.0770   -7.0001 C   0  0  0  0  0  0  0  0  0  0  0  0
   -1.6040   -0.3136   -5.7122 C   0  0  0  0  0  0  0  0  0  0  0  0
  1  2  1  0  0  0  0
  2  3  2  0  0  0  0
  3  4  1  0  0  0  0
  4  5  2  0  0  0  0
  5  6  1  0  0  0  0
  6  7  2  0  0  0  0
  2  7  1  0  0  0  0
  4  8  1  0  0  0  0
  8  9  1  0  0  0  0
  9 10  2  0  0  0  0
  9 11  1  0  0  0  0
 11 12  1  0  0  0  0
 12 13  1  0  0  0  0
 13 14  1  0  0  0  0
 14 15  1  0  0  0  0
 15 16  1  0  0  0  0
 11 16  1  0  0  0  0
 14 17  1  0  0  0  0
 17 18  2  0  0  0  0
 18 19  1  0  0  0  0
 19 20  2  0  0  0  0
 20 21  1  0  0  0  0
 17 21  1  0  0  0  0
 19 22  1  0  0  0  0
 22 23  2  0  0  0  0
 23 24  1  0  0  0  0
 24 25  2  0  0  0  0
 25 26  1  0  0  0  0
 26 27  2  0  0  0  0
 22 27  1  0  0  0  0
M  END
$$$$
