
  Mrv1719 05181907233D          

 27 30  0  0  0  0            999 V2000
   -2.2331    5.2126   -0.3290 C   0  0  0  0  0  0  0  0  0  0  0  0
   -0.7712    5.3112   -0.1129 C   0  0  0  0  0  0  0  0  0  0  0  0
   -0.0695    4.3282    0.6220 C   0  0  0  0  0  0  0  0  0  0  0  0
    1.3219    4.4403    0.8562 C   0  0  0  0  0  0  0  0  0  0  0  0
    2.0073    5.5644    0.3553 C   0  0  0  0  0  0  0  0  0  0  0  0
    1.3259    6.5410   -0.3924 C   0  0  0  0  0  0  0  0  0  0  0  0
   -0.0543    6.4139   -0.6286 C   0  0  0  0  0  0  0  0  0  0  0  0
    2.0108    3.5321    1.6028 N   0  0  0  0  0  0  0  0  0  0  0  0
    1.8247    2.1787    1.6529 C   0  0  0  0  0  0  0  0  0  0  0  0
    2.2024    1.6674    2.7324 O   0  0  0  0  0  0  0  0  0  0  0  0
    1.2784    1.3805    0.6583 N   0  0  0  0  0  0  0  0  0  0  0  0
    0.6175    0.1197    0.9673 C   0  0  0  0  0  0  0  0  0  0  0  0
    0.9759   -1.0313   -0.0154 C   0  0  0  0  0  0  0  0  0  0  0  0
    0.9802   -0.5381   -1.3781 N   0  0  0  0  0  0  0  0  0  0  0  0
    1.8746    0.5753   -1.6060 C   0  0  0  0  0  0  0  0  0  0  0  0
    1.3823    1.7597   -0.7398 C   0  0  0  0  0  0  0  0  0  0  0  0
    0.1273   -0.9979   -2.3648 C   0  0  0  0  0  0  0  0  0  0  0  0
    0.2138   -0.5633   -3.6462 N   0  0  0  0  0  0  0  0  0  0  0  0
   -1.0435   -1.2741   -4.5373 S   0  0  0  0  0  0  0  0  0  0  0  0
   -1.6897   -2.1611   -3.1762 C   0  0  0  0  0  0  0  0  0  0  0  0
   -0.8900   -1.8730   -2.1275 N   0  0  0  0  0  0  0  0  0  0  0  0
   -2.8387   -2.9770   -3.1775 C   0  0  0  0  0  0  0  0  0  0  0  0
   -3.9160   -2.6940   -4.0504 C   0  0  0  0  0  0  0  0  0  0  0  0
   -5.0720   -3.4935   -4.0472 C   0  0  0  0  0  0  0  0  0  0  0  0
   -5.1622   -4.5923   -3.1758 C   0  0  0  0  0  0  0  0  0  0  0  0
   -4.0970   -4.8895   -2.3066 C   0  0  0  0  0  0  0  0  0  0  0  0
   -2.9438   -4.0819   -2.3014 C   0  0  0  0  0  0  0  0  0  0  0  0
  1  2  1  0  0  0  0
  2  3  2  0  0  0  0
  3  4  1  0  0  0  0
  4  5  2  0  0  0  0
  5  6  1  0  0  0  0
  6  7  2  0  0  0  0
  2  7  1  0  0  0  0
  4  8  1  0  0  0  0
  8  9  1  0  0  0  0
  9 10  2  0  0  0  0
  9 11  1  0  0  0  0
 11 12  1  0  0  0  0
 12 13  1  0  0  0  0
 13 14  1  0  0  0  0
 14 15  1  0  0  0  0
 15 16  1  0  0  0  0
 11 16  1  0  0  0  0
 14 17  1  0  0  0  0
 17 18  2  0  0  0  0
 18 19  1  0  0  0  0
 19 20  1  0  0  0  0
 20 21  2  0  0  0  0
 17 21  1  0  0  0  0
 20 22  1  0  0  0  0
 22 23  2  0  0  0  0
 23 24  1  0  0  0  0
 24 25  2  0  0  0  0
 25 26  1  0  0  0  0
 26 27  2  0  0  0  0
 22 27  1  0  0  0  0
M  END
$$$$
