
  Mrv1719 05181907463D          

 35 42  0  0  0  0            999 V2000
   -5.4124    5.6921   -0.6207 C   0  0  0  0  0  0  0  0  0  0  0  0
   -4.3152    5.0304    0.2806 C   0  0  2  0  0  0  0  0  0  0  0  0
   -4.5734    5.3527    1.8066 C   0  0  2  0  0  0  0  0  0  0  0  0
   -3.2460    5.3320    2.6385 C   0  0  2  0  0  0  0  0  0  0  0  0
   -2.1896    6.2493    1.9529 C   0  0  0  0  0  0  0  0  0  0  0  0
   -1.9590    5.8270    0.4766 C   0  0  2  0  0  0  0  0  0  0  0  0
   -3.1838    5.7569   -0.2594 O   0  0  0  0  0  0  0  0  0  0  0  0
   -1.1623    4.6411    0.3336 N   0  0  0  0  0  0  0  0  0  0  0  0
    0.1891    4.5810    0.4041 C   0  0  0  0  0  0  0  0  0  0  0  0
    1.1225    5.6227    0.5906 C   0  0  0  0  0  0  0  0  0  0  0  0
    2.4951    5.3177    0.6305 C   0  0  0  0  0  0  0  0  0  0  0  0
    2.9296    3.9859    0.4847 C   0  0  0  0  0  0  0  0  0  0  0  0
    1.9955    2.9475    0.2964 C   0  0  0  0  0  0  0  0  0  0  0  0
    0.6185    3.2557    0.2659 C   0  0  0  0  0  0  0  0  0  0  0  0
   -0.5373    2.4852    0.1170 C   0  0  0  0  0  0  0  0  0  0  0  0
   -0.7853    1.0961   -0.0048 C   0  0  0  0  0  0  0  0  0  0  0  0
   -2.1002    0.6339   -0.1390 C   0  0  0  0  0  0  0  0  0  0  0  0
   -3.1725    1.5498   -0.1447 C   0  0  0  0  0  0  0  0  0  0  0  0
   -4.5414    1.3672   -0.2323 C   0  0  0  0  0  0  0  0  0  0  0  0
   -5.3039    0.1976   -0.4243 C   0  0  0  0  0  0  0  0  0  0  0  0
   -6.7056    0.2947   -0.4169 C   0  0  0  0  0  0  0  0  0  0  0  0
   -7.3236    1.5424   -0.2152 C   0  0  0  0  0  0  0  0  0  0  0  0
   -6.5431    2.7015   -0.0345 C   0  0  0  0  0  0  0  0  0  0  0  0
   -5.1282    2.6301   -0.0670 C   0  0  0  0  0  0  0  0  0  0  0  0
   -4.1547    3.5878    0.0617 N   0  0  0  0  0  0  0  0  0  0  0  0
   -2.9603    2.9264    0.0100 C   0  0  0  0  0  0  0  0  0  0  0  0
   -1.6231    3.3866    0.1357 C   0  0  0  0  0  0  0  0  0  0  0  0
   -2.1350   -0.8306   -0.2052 C   0  0  0  0  0  0  0  0  0  0  0  0
   -0.7551   -1.1311   -0.1055 N   0  0  0  0  0  0  0  0  0  0  0  0
    0.0188   -0.0418    0.0176 C   0  0  0  0  0  0  0  0  0  0  0  0
    1.2568   -0.1202    0.1562 O   0  0  0  0  0  0  0  0  0  0  0  0
   -2.8272    3.9185    2.8452 N   0  0  0  0  0  0  0  0  0  0  0  0
   -1.7218    3.6532    3.7828 C   0  0  0  0  0  0  0  0  0  0  0  0
   -5.5836    4.4361    2.3024 O   0  0  0  0  0  0  0  0  0  0  0  0
   -6.0808    4.6326    3.6363 C   0  0  0  0  0  0  0  0  0  0  0  0
  1  2  1  0  0  0  0
  2  3  1  0  0  0  0
  3  4  1  0  0  0  0
  4  5  1  0  0  0  0
  5  6  1  0  0  0  0
  6  7  1  0  0  0  0
  2  7  1  0  0  0  0
  6  8  1  0  0  0  0
  8  9  1  0  0  0  0
  9 10  2  0  0  0  0
 10 11  1  0  0  0  0
 11 12  2  0  0  0  0
 12 13  1  0  0  0  0
 13 14  2  0  0  0  0
  9 14  1  0  0  0  0
 14 15  1  0  0  0  0
 15 16  2  0  0  0  0
 16 17  1  0  0  0  0
 17 18  2  0  0  0  0
 18 19  1  0  0  0  0
 19 20  2  0  0  0  0
 20 21  1  0  0  0  0
 21 22  2  0  0  0  0
 22 23  1  0  0  0  0
 23 24  2  0  0  0  0
 19 24  1  0  0  0  0
 24 25  1  0  0  0  0
  2 25  1  0  0  0  0
 25 26  1  0  0  0  0
 18 26  1  0  0  0  0
 26 27  2  0  0  0  0
 15 27  1  0  0  0  0
  8 27  1  0  0  0  0
 17 28  1  0  0  0  0
 28 29  1  0  0  0  0
 29 30  1  0  0  0  0
 16 30  1  0  0  0  0
 30 31  2  0  0  0  0
  4 32  1  0  0  0  0
 32 33  1  0  0  0  0
  3 34  1  0  0  0  0
 34 35  1  0  0  0  0
M  END
$$$$
