MODEL 1
REMARK NAME *****_MODEL1
REMARK  4 active torsions:
REMARK  status: ('A' for Active; 'I' for Inactive)
REMARK    1  A    between atoms: C_5  and  C_8 
REMARK    2  A    between atoms: C_9  and  C_14 
REMARK    3  A    between atoms: C_17  and  N_19 
REMARK    4  A    between atoms: N_19  and  C_20 
ROOT
ATOM      1  C   LIG d   1      26.128 -12.419  16.081  0.00  0.00     0.021 A 
ATOM      2  C   LIG d   1      26.300 -11.006  16.131  0.00  0.00     0.011 A 
ATOM      3  C   LIG d   1      27.396 -10.425  15.457  0.00  0.00     0.021 A 
ATOM      4  C   LIG d   1      28.279 -11.237  14.728  0.00  0.00     0.099 A 
ATOM      5  N   LIG d   1      28.075 -12.576  14.675  0.00  0.00    -0.242 NA
ATOM      6  C   LIG d   1      27.045 -13.181  15.320  0.00  0.00     0.099 A 
ENDROOT
BRANCH   2   7
ATOM      7  C   LIG d   1      25.428 -10.144  16.836  0.00  0.00     0.052 A 
ATOM      8  C   LIG d   1      24.298  -9.457  16.369  0.00  0.00     0.108 A 
ATOM      9  N   LIG d   1      23.671  -8.643  17.261  0.00  0.00    -0.219 NA
ATOM     10  C   LIG d   1      24.194  -8.595  18.508  0.00  0.00     0.194 A 
ATOM     11  S   LIG d   1      25.584  -9.662  18.515  0.00  0.00    -0.047 SA
BRANCH  10  12
ATOM     12  N   LIG d   1      23.842  -7.851  19.584  0.00  0.00    -0.221 NA
BRANCH  12  13
ATOM     13  C   LIG d   1      22.894  -6.875  19.689  0.00  0.00     0.084 A 
ATOM     14  C   LIG d   1      23.329  -5.641  20.225  0.00  0.00     0.021 A 
ATOM     15  C   LIG d   1      22.452  -4.545  20.319  0.00  0.00     0.029 A 
ATOM     16  C   LIG d   1      21.117  -4.674  19.899  0.00  0.00     0.131 A 
ATOM     17  C   LIG d   1      20.658  -5.908  19.398  0.00  0.00     0.029 A 
ATOM     18  O   LIG d   1      20.287  -3.605  19.967  0.00  0.00    -0.190 OA
ATOM     19  C   LIG d   1      21.538  -7.002  19.299  0.00  0.00     0.021 A 
ENDBRANCH  12  13
ENDBRANCH  10  12
ENDBRANCH   2   7
BRANCH   1  20
ATOM     20  C   LIG d   1      25.124 -13.084  16.835  0.00  0.00     0.012 A 
ATOM     21  C   LIG d   1      23.839 -13.394  16.321  0.00  0.00     0.058 A 
ATOM     22  C   LIG d   1      22.875 -13.993  17.161  0.00  0.00     0.007 A 
ATOM     23 CL   LIG d   1      23.401 -13.043  14.719  0.00  0.00    -0.082 c 
ATOM     24  C   LIG d   1      23.180 -14.314  18.504  0.00  0.00    -0.021 A 
ATOM     25  C   LIG d   1      22.179 -14.928  19.408  0.00  0.00     0.031 C 
ATOM     26  C   LIG d   1      24.472 -14.036  18.995  0.00  0.00    -0.004 A 
ATOM     27  C   LIG d   1      25.431 -13.428  18.172  0.00  0.00     0.001 A 
ENDBRANCH   1  20
TORSDOF 4
ENDMDL
MODEL 2
REMARK NAME *****_MODEL2
REMARK  4 active torsions:
REMARK  status: ('A' for Active; 'I' for Inactive)
REMARK    1  A    between atoms: C_5  and  C_8 
REMARK    2  A    between atoms: C_9  and  C_14 
REMARK    3  A    between atoms: C_17  and  N_19 
REMARK    4  A    between atoms: N_19  and  C_20 
ROOT
ATOM      1  C   LIG d   1      25.925 -12.615  16.633  0.00  0.00     0.021 A 
ATOM      2  C   LIG d   1      25.222 -11.728  17.496  0.00  0.00     0.011 A 
ATOM      3  C   LIG d   1      24.394 -12.265  18.506  0.00  0.00     0.021 A 
ATOM      4  C   LIG d   1      24.298 -13.656  18.664  0.00  0.00     0.099 A 
ATOM      5  N   LIG d   1      25.001 -14.477  17.846  0.00  0.00    -0.242 NA
ATOM      6  C   LIG d   1      25.796 -14.007  16.852  0.00  0.00     0.099 A 
ENDROOT
BRANCH   2   7
ATOM      7  C   LIG d   1      25.299 -10.319  17.389  0.00  0.00     0.052 A 
ATOM      8  C   LIG d   1      26.351  -9.528  16.904  0.00  0.00     0.108 A 
ATOM      9  N   LIG d   1      26.175  -8.180  16.968  0.00  0.00    -0.219 NA
ATOM     10  C   LIG d   1      24.999  -7.746  17.478  0.00  0.00     0.194 A 
ATOM     11  S   LIG d   1      24.076  -9.174  17.904  0.00  0.00    -0.047 SA
BRANCH  10  12
ATOM     12  N   LIG d   1      24.554  -6.491  17.725  0.00  0.00    -0.221 NA
BRANCH  12  13
ATOM     13  C   LIG d   1      23.460  -6.084  18.432  0.00  0.00     0.084 A 
ATOM     14  C   LIG d   1      23.707  -5.200  19.507  0.00  0.00     0.021 A 
ATOM     15  C   LIG d   1      22.647  -4.667  20.263  0.00  0.00     0.029 A 
ATOM     16  C   LIG d   1      21.322  -5.029  19.969  0.00  0.00     0.131 A 
ATOM     17  C   LIG d   1      21.060  -5.939  18.925  0.00  0.00     0.029 A 
ATOM     18  O   LIG d   1      20.304  -4.490  20.683  0.00  0.00    -0.190 OA
ATOM     19  C   LIG d   1      22.121  -6.466  18.165  0.00  0.00     0.021 A 
ENDBRANCH  12  13
ENDBRANCH  10  12
ENDBRANCH   2   7
BRANCH   1  20
ATOM     20  C   LIG d   1      26.675 -12.150  15.520  0.00  0.00     0.012 A 
ATOM     21  C   LIG d   1      26.084 -11.556  14.375  0.00  0.00     0.058 A 
ATOM     22  C   LIG d   1      26.896 -11.186  13.281  0.00  0.00     0.007 A 
ATOM     23 CL   LIG d   1      24.411 -11.293  14.259  0.00  0.00    -0.082 c 
ATOM     24  C   LIG d   1      28.297 -11.374  13.318  0.00  0.00    -0.021 A 
ATOM     25  C   LIG d   1      29.166 -11.008  12.176  0.00  0.00     0.031 C 
ATOM     26  C   LIG d   1      28.878 -11.931  14.475  0.00  0.00    -0.004 A 
ATOM     27  C   LIG d   1      28.078 -12.315  15.561  0.00  0.00     0.001 A 
ENDBRANCH   1  20
TORSDOF 4
ENDMDL
MODEL 3
REMARK NAME *****_MODEL3
REMARK  4 active torsions:
REMARK  status: ('A' for Active; 'I' for Inactive)
REMARK    1  A    between atoms: C_5  and  C_8 
REMARK    2  A    between atoms: C_9  and  C_14 
REMARK    3  A    between atoms: C_17  and  N_19 
REMARK    4  A    between atoms: N_19  and  C_20 
ROOT
ATOM      1  C   LIG d   1      26.308 -10.550  16.563  0.00  0.00     0.021 A 
ATOM      2  C   LIG d   1      26.055 -11.927  16.307  0.00  0.00     0.011 A 
ATOM      3  C   LIG d   1      26.885 -12.620  15.398  0.00  0.00     0.021 A 
ATOM      4  C   LIG d   1      27.959 -11.954  14.786  0.00  0.00     0.099 A 
ATOM      5  N   LIG d   1      28.193 -10.650  15.070  0.00  0.00    -0.242 NA
ATOM      6  C   LIG d   1      27.413  -9.940  15.924  0.00  0.00     0.099 A 
ENDROOT
BRANCH   2   7
ATOM      7  C   LIG d   1      24.998 -12.646  16.911  0.00  0.00     0.052 A 
ATOM      8  C   LIG d   1      23.775 -13.050  16.356  0.00  0.00     0.108 A 
ATOM      9  N   LIG d   1      22.910 -13.688  17.193  0.00  0.00    -0.219 NA
ATOM     10  C   LIG d   1      23.328 -13.878  18.465  0.00  0.00     0.194 A 
ATOM     11  S   LIG d   1      24.932 -13.181  18.580  0.00  0.00    -0.047 SA
BRANCH  10  12
ATOM     12  N   LIG d   1      22.690 -14.416  19.532  0.00  0.00    -0.221 NA
BRANCH  12  13
ATOM     13  C   LIG d   1      23.210 -15.051  20.622  0.00  0.00     0.084 A 
ATOM     14  C   LIG d   1      24.401 -15.782  20.407  0.00  0.00     0.021 A 
ATOM     15  C   LIG d   1      25.059 -16.423  21.473  0.00  0.00     0.029 A 
ATOM     16  C   LIG d   1      24.522 -16.360  22.770  0.00  0.00     0.131 A 
ATOM     17  C   LIG d   1      23.315 -15.668  22.995  0.00  0.00     0.029 A 
ATOM     18  O   LIG d   1      25.176 -16.956  23.796  0.00  0.00    -0.190 OA
ATOM     19  C   LIG d   1      22.662 -15.023  21.929  0.00  0.00     0.021 A 
ENDBRANCH  12  13
ENDBRANCH  10  12
ENDBRANCH   2   7
BRANCH   1  20
ATOM     20  C   LIG d   1      25.442  -9.760  17.366  0.00  0.00     0.012 A 
ATOM     21  C   LIG d   1      24.448  -8.901  16.829  0.00  0.00     0.058 A 
ATOM     22  C   LIG d   1      23.678  -8.096  17.695  0.00  0.00     0.007 A 
ATOM     23 CL   LIG d   1      24.165  -8.785  15.160  0.00  0.00    -0.082 c 
ATOM     24  C   LIG d   1      23.862  -8.150  19.096  0.00  0.00    -0.021 A 
ATOM     25  C   LIG d   1      23.076  -7.303  20.022  0.00  0.00     0.031 C 
ATOM     26  C   LIG d   1      24.827  -9.034  19.622  0.00  0.00    -0.004 A 
ATOM     27  C   LIG d   1      25.608  -9.827  18.768  0.00  0.00     0.001 A 
ENDBRANCH   1  20
TORSDOF 4
ENDMDL
MODEL 4
REMARK NAME *****_MODEL4
REMARK  4 active torsions:
REMARK  status: ('A' for Active; 'I' for Inactive)
REMARK    1  A    between atoms: C_5  and  C_8 
REMARK    2  A    between atoms: C_9  and  C_14 
REMARK    3  A    between atoms: C_17  and  N_19 
REMARK    4  A    between atoms: N_19  and  C_20 
ROOT
ATOM      1  C   LIG d   1      26.319 -10.535  16.575  0.00  0.00     0.021 A 
ATOM      2  C   LIG d   1      26.081 -11.918  16.333  0.00  0.00     0.011 A 
ATOM      3  C   LIG d   1      26.916 -12.610  15.428  0.00  0.00     0.021 A 
ATOM      4  C   LIG d   1      27.979 -11.937  14.805  0.00  0.00     0.099 A 
ATOM      5  N   LIG d   1      28.199 -10.628  15.075  0.00  0.00    -0.242 NA
ATOM      6  C   LIG d   1      27.414  -9.919  15.925  0.00  0.00     0.099 A 
ENDROOT
BRANCH   2   7
ATOM      7  C   LIG d   1      25.034 -12.643  16.949  0.00  0.00     0.052 A 
ATOM      8  C   LIG d   1      23.749 -12.923  16.462  0.00  0.00     0.108 A 
ATOM      9  N   LIG d   1      22.918 -13.602  17.299  0.00  0.00    -0.219 NA
ATOM     10  C   LIG d   1      23.424 -13.948  18.505  0.00  0.00     0.194 A 
ATOM     11  S   LIG d   1      25.070 -13.349  18.553  0.00  0.00    -0.047 SA
BRANCH  10  12
ATOM     12  N   LIG d   1      22.842 -14.564  19.562  0.00  0.00    -0.221 NA
BRANCH  12  13
ATOM     13  C   LIG d   1      23.423 -15.199  20.621  0.00  0.00     0.084 A 
ATOM     14  C   LIG d   1      24.448 -16.120  20.308  0.00  0.00     0.021 A 
ATOM     15  C   LIG d   1      25.159 -16.784  21.325  0.00  0.00     0.029 A 
ATOM     16  C   LIG d   1      24.838 -16.553  22.673  0.00  0.00     0.131 A 
ATOM     17  C   LIG d   1      23.793 -15.667  23.001  0.00  0.00     0.029 A 
ATOM     18  O   LIG d   1      25.546 -17.174  23.647  0.00  0.00    -0.190 OA
ATOM     19  C   LIG d   1      23.087 -14.999  21.984  0.00  0.00     0.021 A 
ENDBRANCH  12  13
ENDBRANCH  10  12
ENDBRANCH   2   7
BRANCH   1  20
ATOM     20  C   LIG d   1      25.447  -9.747  17.372  0.00  0.00     0.012 A 
ATOM     21  C   LIG d   1      24.469  -8.873  16.830  0.00  0.00     0.058 A 
ATOM     22  C   LIG d   1      23.691  -8.072  17.694  0.00  0.00     0.007 A 
ATOM     23 CL   LIG d   1      24.215  -8.734  15.158  0.00  0.00    -0.082 c 
ATOM     24  C   LIG d   1      23.853  -8.145  19.096  0.00  0.00    -0.021 A 
ATOM     25  C   LIG d   1      23.059  -7.302  20.020  0.00  0.00     0.031 C 
ATOM     26  C   LIG d   1      24.801  -9.043  19.627  0.00  0.00    -0.004 A 
ATOM     27  C   LIG d   1      25.588  -9.833  18.776  0.00  0.00     0.001 A 
ENDBRANCH   1  20
TORSDOF 4
ENDMDL
MODEL 5
REMARK NAME *****_MODEL5
REMARK  4 active torsions:
REMARK  status: ('A' for Active; 'I' for Inactive)
REMARK    1  A    between atoms: C_5  and  C_8 
REMARK    2  A    between atoms: C_9  and  C_14 
REMARK    3  A    between atoms: C_17  and  N_19 
REMARK    4  A    between atoms: N_19  and  C_20 
ROOT
ATOM      1  C   LIG d   1      26.342 -10.643  16.371  0.00  0.00     0.021 A 
ATOM      2  C   LIG d   1      26.096 -12.030  16.162  0.00  0.00     0.011 A 
ATOM      3  C   LIG d   1      26.912 -12.743  15.258  0.00  0.00     0.021 A 
ATOM      4  C   LIG d   1      27.966 -12.088  14.602  0.00  0.00     0.099 A 
ATOM      5  N   LIG d   1      28.196 -10.774  14.840  0.00  0.00    -0.242 NA
ATOM      6  C   LIG d   1      27.428 -10.044  15.689  0.00  0.00     0.099 A 
ENDROOT
BRANCH   2   7
ATOM      7  C   LIG d   1      25.059 -12.738  16.812  0.00  0.00     0.052 A 
ATOM      8  C   LIG d   1      23.876 -13.264  16.271  0.00  0.00     0.108 A 
ATOM      9  N   LIG d   1      23.020 -13.857  17.147  0.00  0.00    -0.219 NA
ATOM     10  C   LIG d   1      23.406 -13.891  18.443  0.00  0.00     0.194 A 
ATOM     11  S   LIG d   1      24.968 -13.100  18.526  0.00  0.00    -0.047 SA
BRANCH  10  12
ATOM     12  N   LIG d   1      22.763 -14.349  19.544  0.00  0.00    -0.221 NA
BRANCH  12  13
ATOM     13  C   LIG d   1      23.264 -15.017  20.624  0.00  0.00     0.084 A 
ATOM     14  C   LIG d   1      24.425 -15.790  20.393  0.00  0.00     0.021 A 
ATOM     15  C   LIG d   1      25.063 -16.469  21.448  0.00  0.00     0.029 A 
ATOM     16  C   LIG d   1      24.534 -16.403  22.748  0.00  0.00     0.131 A 
ATOM     17  C   LIG d   1      23.356 -15.668  22.988  0.00  0.00     0.029 A 
ATOM     18  O   LIG d   1      25.170 -17.036  23.764  0.00  0.00    -0.190 OA
ATOM     19  C   LIG d   1      22.723 -14.984  21.933  0.00  0.00     0.021 A 
ENDBRANCH  12  13
ENDBRANCH  10  12
ENDBRANCH   2   7
BRANCH   1  20
ATOM     20  C   LIG d   1      25.488  -9.836  17.168  0.00  0.00     0.012 A 
ATOM     21  C   LIG d   1      24.433  -9.052  16.633  0.00  0.00     0.058 A 
ATOM     22  C   LIG d   1      23.675  -8.222  17.487  0.00  0.00     0.007 A 
ATOM     23 CL   LIG d   1      24.059  -9.055  14.977  0.00  0.00    -0.082 c 
ATOM     24  C   LIG d   1      23.934  -8.178  18.876  0.00  0.00    -0.021 A 
ATOM     25  C   LIG d   1      23.162  -7.302  19.788  0.00  0.00     0.031 C 
ATOM     26  C   LIG d   1      24.960  -8.988  19.404  0.00  0.00    -0.004 A 
ATOM     27  C   LIG d   1      25.727  -9.805  18.560  0.00  0.00     0.001 A 
ENDBRANCH   1  20
TORSDOF 4
ENDMDL
MODEL 6
REMARK NAME *****_MODEL6
REMARK  4 active torsions:
REMARK  status: ('A' for Active; 'I' for Inactive)
REMARK    1  A    between atoms: C_5  and  C_8 
REMARK    2  A    between atoms: C_9  and  C_14 
REMARK    3  A    between atoms: C_17  and  N_19 
REMARK    4  A    between atoms: N_19  and  C_20 
ROOT
ATOM      1  C   LIG d   1      26.292 -10.460  16.686  0.00  0.00     0.021 A 
ATOM      2  C   LIG d   1      26.044 -11.862  16.664  0.00  0.00     0.011 A 
ATOM      3  C   LIG d   1      26.857 -12.690  15.861  0.00  0.00     0.021 A 
ATOM      4  C   LIG d   1      27.911 -12.129  15.122  0.00  0.00     0.099 A 
ATOM      5  N   LIG d   1      28.143 -10.796  15.184  0.00  0.00    -0.242 NA
ATOM      6  C   LIG d   1      27.378  -9.959  15.929  0.00  0.00     0.099 A 
ENDROOT
BRANCH   2   7
ATOM      7  C   LIG d   1      25.006 -12.476  17.403  0.00  0.00     0.052 A 
ATOM      8  C   LIG d   1      23.645 -12.143  17.457  0.00  0.00     0.108 A 
ATOM      9  N   LIG d   1      22.874 -12.878  18.305  0.00  0.00    -0.219 NA
ATOM     10  C   LIG d   1      23.499 -13.861  18.994  0.00  0.00     0.194 A 
ATOM     11  S   LIG d   1      25.184 -13.820  18.516  0.00  0.00    -0.047 SA
BRANCH  10  12
ATOM     12  N   LIG d   1      23.030 -14.710  19.940  0.00  0.00    -0.221 NA
BRANCH  12  13
ATOM     13  C   LIG d   1      23.721 -15.474  20.835  0.00  0.00     0.084 A 
ATOM     14  C   LIG d   1      24.507 -16.515  20.289  0.00  0.00     0.021 A 
ATOM     15  C   LIG d   1      25.310 -17.323  21.114  0.00  0.00     0.029 A 
ATOM     16  C   LIG d   1      25.321 -17.117  22.505  0.00  0.00     0.131 A 
ATOM     17  C   LIG d   1      24.514 -16.109  23.069  0.00  0.00     0.029 A 
ATOM     18  O   LIG d   1      26.118 -17.882  23.290  0.00  0.00    -0.190 OA
ATOM     19  C   LIG d   1      23.716 -15.297  22.242  0.00  0.00     0.021 A 
ENDBRANCH  12  13
ENDBRANCH  10  12
ENDBRANCH   2   7
BRANCH   1  20
ATOM     20  C   LIG d   1      25.440  -9.552  17.370  0.00  0.00     0.012 A 
ATOM     21  C   LIG d   1      24.502  -8.716  16.711  0.00  0.00     0.058 A 
ATOM     22  C   LIG d   1      23.743  -7.791  17.460  0.00  0.00     0.007 A 
ATOM     23 CL   LIG d   1      24.273  -8.769  15.030  0.00  0.00    -0.082 c 
ATOM     24  C   LIG d   1      23.884  -7.701  18.864  0.00  0.00    -0.021 A 
ATOM     25  C   LIG d   1      23.109  -6.727  19.667  0.00  0.00     0.031 C 
ATOM     26  C   LIG d   1      24.792  -8.563  19.514  0.00  0.00    -0.004 A 
ATOM     27  C   LIG d   1      25.560  -9.475  18.776  0.00  0.00     0.001 A 
ENDBRANCH   1  20
TORSDOF 4
ENDMDL
MODEL 7
REMARK NAME *****_MODEL7
REMARK  4 active torsions:
REMARK  status: ('A' for Active; 'I' for Inactive)
REMARK    1  A    between atoms: C_5  and  C_8 
REMARK    2  A    between atoms: C_9  and  C_14 
REMARK    3  A    between atoms: C_17  and  N_19 
REMARK    4  A    between atoms: N_19  and  C_20 
ROOT
ATOM      1  C   LIG d   1      26.486 -10.683  16.159  0.00  0.00     0.021 A 
ATOM      2  C   LIG d   1      26.161 -12.011  15.763  0.00  0.00     0.011 A 
ATOM      3  C   LIG d   1      27.008 -12.684  14.856  0.00  0.00     0.021 A 
ATOM      4  C   LIG d   1      28.167 -12.050  14.381  0.00  0.00     0.099 A 
ATOM      5  N   LIG d   1      28.467 -10.796  14.796  0.00  0.00    -0.242 NA
ATOM      6  C   LIG d   1      27.675 -10.105  15.655  0.00  0.00     0.099 A 
ENDROOT
BRANCH   2   7
ATOM      7  C   LIG d   1      25.014 -12.698  16.226  0.00  0.00     0.052 A 
ATOM      8  C   LIG d   1      23.943 -13.225  15.489  0.00  0.00     0.108 A 
ATOM      9  N   LIG d   1      22.936 -13.793  16.206  0.00  0.00    -0.219 NA
ATOM     10  C   LIG d   1      23.081 -13.806  17.551  0.00  0.00     0.194 A 
ATOM     11  S   LIG d   1      24.611 -13.025  17.901  0.00  0.00    -0.047 SA
BRANCH  10  12
ATOM     12  N   LIG d   1      22.244 -14.237  18.526  0.00  0.00    -0.221 NA
BRANCH  12  13
ATOM     13  C   LIG d   1      22.522 -14.962  19.647  0.00  0.00     0.084 A 
ATOM     14  C   LIG d   1      23.201 -14.276  20.680  0.00  0.00     0.021 A 
ATOM     15  C   LIG d   1      23.482 -14.907  21.905  0.00  0.00     0.029 A 
ATOM     16  C   LIG d   1      23.108 -16.247  22.107  0.00  0.00     0.131 A 
ATOM     17  C   LIG d   1      22.465 -16.958  21.075  0.00  0.00     0.029 A 
ATOM     18  O   LIG d   1      23.357 -16.840  23.300  0.00  0.00    -0.190 OA
ATOM     19  C   LIG d   1      22.179 -16.322  19.852  0.00  0.00     0.021 A 
ENDBRANCH  12  13
ENDBRANCH  10  12
ENDBRANCH   2   7
BRANCH   1  20
ATOM     20  C   LIG d   1      25.619  -9.902  16.968  0.00  0.00     0.012 A 
ATOM     21  C   LIG d   1      24.516  -9.174  16.451  0.00  0.00     0.058 A 
ATOM     22  C   LIG d   1      23.745  -8.365  17.314  0.00  0.00     0.007 A 
ATOM     23 CL   LIG d   1      24.097  -9.220  14.807  0.00  0.00    -0.082 c 
ATOM     24  C   LIG d   1      24.040  -8.287  18.695  0.00  0.00    -0.021 A 
ATOM     25  C   LIG d   1      23.255  -7.433  19.615  0.00  0.00     0.031 C 
ATOM     26  C   LIG d   1      25.115  -9.043  19.205  0.00  0.00    -0.004 A 
ATOM     27  C   LIG d   1      25.895  -9.839  18.353  0.00  0.00     0.001 A 
ENDBRANCH   1  20
TORSDOF 4
ENDMDL
MODEL 8
REMARK NAME *****_MODEL8
REMARK  4 active torsions:
REMARK  status: ('A' for Active; 'I' for Inactive)
REMARK    1  A    between atoms: C_5  and  C_8 
REMARK    2  A    between atoms: C_9  and  C_14 
REMARK    3  A    between atoms: C_17  and  N_19 
REMARK    4  A    between atoms: N_19  and  C_20 
ROOT
ATOM      1  C   LIG d   1      25.434  -9.374  16.397  0.00  0.00     0.021 A 
ATOM      2  C   LIG d   1      24.848 -10.078  17.487  0.00  0.00     0.011 A 
ATOM      3  C   LIG d   1      24.421  -9.354  18.621  0.00  0.00     0.021 A 
ATOM      4  C   LIG d   1      24.553  -7.956  18.648  0.00  0.00     0.099 A 
ATOM      5  N   LIG d   1      25.089  -7.309  17.585  0.00  0.00    -0.242 NA
ATOM      6  C   LIG d   1      25.527  -7.965  16.480  0.00  0.00     0.099 A 
ENDROOT
BRANCH   2   7
ATOM      7  C   LIG d   1      24.678 -11.482  17.501  0.00  0.00     0.052 A 
ATOM      8  C   LIG d   1      24.434 -12.352  16.428  0.00  0.00     0.108 A 
ATOM      9  N   LIG d   1      24.255 -13.664  16.740  0.00  0.00    -0.219 NA
ATOM     10  C   LIG d   1      24.347 -13.994  18.048  0.00  0.00     0.194 A 
ATOM     11  S   LIG d   1      24.677 -12.511  18.921  0.00  0.00    -0.047 SA
BRANCH  10  12
ATOM     12  N   LIG d   1      24.164 -15.182  18.674  0.00  0.00    -0.221 NA
BRANCH  12  13
ATOM     13  C   LIG d   1      23.869 -15.434  19.982  0.00  0.00     0.084 A 
ATOM     14  C   LIG d   1      24.799 -16.232  20.687  0.00  0.00     0.021 A 
ATOM     15  C   LIG d   1      24.628 -16.502  22.058  0.00  0.00     0.029 A 
ATOM     16  C   LIG d   1      23.508 -15.996  22.739  0.00  0.00     0.131 A 
ATOM     17  C   LIG d   1      22.551 -15.231  22.043  0.00  0.00     0.029 A 
ATOM     18  O   LIG d   1      23.365 -16.236  24.065  0.00  0.00    -0.190 OA
ATOM     19  C   LIG d   1      22.727 -14.956  20.674  0.00  0.00     0.021 A 
ENDBRANCH  12  13
ENDBRANCH  10  12
ENDBRANCH   2   7
BRANCH   1  20
ATOM     20  C   LIG d   1      25.999 -10.047  15.280  0.00  0.00     0.012 A 
ATOM     21  C   LIG d   1      25.299 -10.266  14.066  0.00  0.00     0.058 A 
ATOM     22  C   LIG d   1      25.909 -11.006  13.031  0.00  0.00     0.007 A 
ATOM     23 CL   LIG d   1      23.723  -9.687  13.818  0.00  0.00    -0.082 c 
ATOM     24  C   LIG d   1      27.222 -11.512  13.174  0.00  0.00    -0.021 A 
ATOM     25  C   LIG d   1      27.876 -12.305  12.107  0.00  0.00     0.031 C 
ATOM     26  C   LIG d   1      27.923 -11.257  14.370  0.00  0.00    -0.004 A 
ATOM     27  C   LIG d   1      27.319 -10.535  15.410  0.00  0.00     0.001 A 
ENDBRANCH   1  20
TORSDOF 4
ENDMDL
MODEL 9
REMARK NAME *****_MODEL9
REMARK  4 active torsions:
REMARK  status: ('A' for Active; 'I' for Inactive)
REMARK    1  A    between atoms: C_5  and  C_8 
REMARK    2  A    between atoms: C_9  and  C_14 
REMARK    3  A    between atoms: C_17  and  N_19 
REMARK    4  A    between atoms: N_19  and  C_20 
ROOT
ATOM      1  C   LIG d   1      25.224  -8.733  16.201  0.00  0.00     0.021 A 
ATOM      2  C   LIG d   1      24.696  -9.131  17.462  0.00  0.00     0.011 A 
ATOM      3  C   LIG d   1      24.214  -8.143  18.347  0.00  0.00     0.021 A 
ATOM      4  C   LIG d   1      24.235  -6.793  17.964  0.00  0.00     0.099 A 
ATOM      5  N   LIG d   1      24.718  -6.444  16.747  0.00  0.00    -0.242 NA
ATOM      6  C   LIG d   1      25.206  -7.358  15.870  0.00  0.00     0.099 A 
ENDROOT
BRANCH   2   7
ATOM      7  C   LIG d   1      24.638 -10.480  17.886  0.00  0.00     0.052 A 
ATOM      8  C   LIG d   1      24.750 -11.003  19.182  0.00  0.00     0.108 A 
ATOM      9  N   LIG d   1      24.711 -12.359  19.295  0.00  0.00    -0.219 NA
ATOM     10  C   LIG d   1      24.553 -13.057  18.147  0.00  0.00     0.194 A 
ATOM     11  S   LIG d   1      24.457 -11.883  16.850  0.00  0.00    -0.047 SA
BRANCH  10  12
ATOM     12  N   LIG d   1      24.535 -14.393  17.923  0.00  0.00    -0.221 NA
BRANCH  12  13
ATOM     13  C   LIG d   1      23.496 -15.273  18.016  0.00  0.00     0.084 A 
ATOM     14  C   LIG d   1      23.526 -16.368  17.123  0.00  0.00     0.021 A 
ATOM     15  C   LIG d   1      22.540 -17.371  17.175  0.00  0.00     0.029 A 
ATOM     16  C   LIG d   1      21.492 -17.279  18.108  0.00  0.00     0.131 A 
ATOM     17  C   LIG d   1      21.426 -16.174  18.980  0.00  0.00     0.029 A 
ATOM     18  O   LIG d   1      20.562 -18.262  18.171  0.00  0.00    -0.190 OA
ATOM     19  C   LIG d   1      22.417 -15.176  18.931  0.00  0.00     0.021 A 
ENDBRANCH  12  13
ENDBRANCH  10  12
ENDBRANCH   2   7
BRANCH   1  20
ATOM     20  C   LIG d   1      25.840  -9.656  15.314  0.00  0.00     0.012 A 
ATOM     21  C   LIG d   1      25.206 -10.160  14.148  0.00  0.00     0.058 A 
ATOM     22  C   LIG d   1      25.861 -11.129  13.359  0.00  0.00     0.007 A 
ATOM     23 CL   LIG d   1      23.657  -9.651  13.675  0.00  0.00    -0.082 c 
ATOM     24  C   LIG d   1      27.154 -11.590  13.698  0.00  0.00    -0.021 A 
ATOM     25  C   LIG d   1      27.854 -12.619  12.894  0.00  0.00     0.031 C 
ATOM     26  C   LIG d   1      27.791 -11.057  14.838  0.00  0.00    -0.004 A 
ATOM     27  C   LIG d   1      27.141 -10.104  15.635  0.00  0.00     0.001 A 
ENDBRANCH   1  20
TORSDOF 4
ENDMDL
MODEL 10
REMARK NAME *****_MODEL10
REMARK  4 active torsions:
REMARK  status: ('A' for Active; 'I' for Inactive)
REMARK    1  A    between atoms: C_5  and  C_8 
REMARK    2  A    between atoms: C_9  and  C_14 
REMARK    3  A    between atoms: C_17  and  N_19 
REMARK    4  A    between atoms: N_19  and  C_20 
ROOT
ATOM      1  C   LIG d   1      25.163  -8.751  16.236  0.00  0.00     0.021 A 
ATOM      2  C   LIG d   1      24.625  -9.168  17.486  0.00  0.00     0.011 A 
ATOM      3  C   LIG d   1      24.103  -8.197  18.368  0.00  0.00     0.021 A 
ATOM      4  C   LIG d   1      24.096  -6.845  17.992  0.00  0.00     0.099 A 
ATOM      5  N   LIG d   1      24.590  -6.478  16.785  0.00  0.00    -0.242 NA
ATOM      6  C   LIG d   1      25.116  -7.374  15.911  0.00  0.00     0.099 A 
ENDROOT
BRANCH   2   7
ATOM      7  C   LIG d   1      24.593 -10.520  17.903  0.00  0.00     0.052 A 
ATOM      8  C   LIG d   1      24.804 -11.054  19.182  0.00  0.00     0.108 A 
ATOM      9  N   LIG d   1      24.767 -12.411  19.287  0.00  0.00    -0.219 NA
ATOM     10  C   LIG d   1      24.516 -13.100  18.150  0.00  0.00     0.194 A 
ATOM     11  S   LIG d   1      24.325 -11.914  16.873  0.00  0.00    -0.047 SA
BRANCH  10  12
ATOM     12  N   LIG d   1      24.474 -14.433  17.917  0.00  0.00    -0.221 NA
BRANCH  12  13
ATOM     13  C   LIG d   1      23.478 -15.327  18.181  0.00  0.00     0.084 A 
ATOM     14  C   LIG d   1      22.181 -14.786  18.332  0.00  0.00     0.021 A 
ATOM     15  C   LIG d   1      21.068 -15.622  18.543  0.00  0.00     0.029 A 
ATOM     16  C   LIG d   1      21.242 -17.014  18.629  0.00  0.00     0.131 A 
ATOM     17  C   LIG d   1      22.533 -17.567  18.519  0.00  0.00     0.029 A 
ATOM     18  O   LIG d   1      20.162 -17.814  18.804  0.00  0.00    -0.190 OA
ATOM     19  C   LIG d   1      23.643 -16.730  18.302  0.00  0.00     0.021 A 
ENDBRANCH  12  13
ENDBRANCH  10  12
ENDBRANCH   2   7
BRANCH   1  20
ATOM     20  C   LIG d   1      25.816  -9.654  15.356  0.00  0.00     0.012 A 
ATOM     21  C   LIG d   1      25.214 -10.170  14.179  0.00  0.00     0.058 A 
ATOM     22  C   LIG d   1      25.906 -11.118  13.397  0.00  0.00     0.007 A 
ATOM     23 CL   LIG d   1      23.659  -9.702  13.685  0.00  0.00    -0.082 c 
ATOM     24  C   LIG d   1      27.206 -11.545  13.753  0.00  0.00    -0.021 A 
ATOM     25  C   LIG d   1      27.945 -12.552  12.955  0.00  0.00     0.031 C 
ATOM     26  C   LIG d   1      27.812 -10.999  14.903  0.00  0.00    -0.004 A 
ATOM     27  C   LIG d   1      27.125 -10.067  15.694  0.00  0.00     0.001 A 
ENDBRANCH   1  20
TORSDOF 4
ENDMDL
