
     RDKit          3D

 28 31  0  0  0  0  0  0  0  0999 V2000
   -6.8823    1.8029    1.8974 C   0  0  0  0  0  0  0  0  0  0  0  0
   -7.1389    2.1123    0.5288 O   0  0  0  0  0  0  0  0  0  0  0  0
   -6.4930    1.3551   -0.4479 C   0  0  0  0  0  0  0  0  0  0  0  0
   -7.0787    0.1292   -0.7393 C   0  0  0  0  0  0  0  0  0  0  0  0
   -6.3903   -0.8271   -1.4488 C   0  0  0  0  0  0  0  0  0  0  0  0
   -5.0519   -0.6181   -1.7016 C   0  0  0  0  0  0  0  0  0  0  0  0
   -4.3972    0.5492   -1.3323 C   0  0  0  0  0  0  0  0  0  0  0  0
   -3.0037    0.4004   -1.0350 N   0  0  0  0  0  0  0  0  0  0  0  0
   -2.6584   -0.0570    0.2778 C   0  0  0  0  0  0  0  0  0  0  0  0
   -3.4670   -0.8071    0.9009 O   0  0  0  0  0  0  0  0  0  0  0  0
   -1.2684   -0.2675    0.5525 N   0  0  0  0  0  0  0  0  0  0  0  0
   -0.6968   -1.4923   -0.0030 C   0  0  0  0  0  0  0  0  0  0  0  0
    0.8022   -1.3297   -0.0383 C   0  0  0  0  0  0  0  0  0  0  0  0
    1.1672   -0.1350   -0.7964 N   0  0  0  0  0  0  0  0  0  0  0  0
    2.5565   -0.0130   -1.1228 C   0  0  0  0  0  0  0  0  0  0  0  0
    3.6144   -0.6488   -0.5623 N   0  0  0  0  0  0  0  0  0  0  0  0
    4.7099    0.1157   -0.5750 C   0  0  0  0  0  0  0  0  0  0  0  0
    5.7851    0.0344    0.4261 C   0  0  0  0  0  0  0  0  0  0  0  0
    6.3671   -1.1999    0.6848 C   0  0  0  0  0  0  0  0  0  0  0  0
    7.1728   -1.2890    1.8133 C   0  0  0  0  0  0  0  0  0  0  0  0
    7.1308   -0.3529    2.8246 C   0  0  0  0  0  0  0  0  0  0  0  0
    6.2426    0.6975    2.7171 C   0  0  0  0  0  0  0  0  0  0  0  0
    5.6519    0.9085    1.4990 C   0  0  0  0  0  0  0  0  0  0  0  0
    4.9540    0.6100   -1.8151 N   0  0  0  0  0  0  0  0  0  0  0  0
    3.3658    0.8442   -2.3685 S   0  0  0  0  0  0  0  0  0  0  0  0
    0.5421    1.1114   -0.3600 C   0  0  0  0  0  0  0  0  0  0  0  0
   -0.4222    0.9006    0.7732 C   0  0  0  0  0  0  0  0  0  0  0  0
   -5.1135    1.4437   -0.5490 C   0  0  0  0  0  0  0  0  0  0  0  0
  1  2  1  0
  2  3  1  0
  3  4  2  0
  4  5  1  0
  5  6  2  0
  6  7  1  0
  7  8  1  0
  8  9  1  0
  9 10  2  0
  9 11  1  0
 11 12  1  0
 12 13  1  0
 13 14  1  0
 14 15  1  0
 15 16  2  0
 16 17  1  0
 17 18  1  0
 18 19  2  0
 19 20  1  0
 20 21  2  0
 21 22  1  0
 22 23  2  0
 17 24  2  0
 24 25  1  0
 14 26  1  0
 26 27  1  0
  7 28  2  0
 28  3  1  0
 27 11  1  0
 25 15  1  0
 23 18  1  0
M  END
>  <zinc_id>  (1) 
ZINC000034836901

>  <smiles>  (1) 
COc1cccc(NC(=O)N2CCN(c3nc(-c4ccccc4)ns3)CC2)c1

$$$$
