MODEL 1
REMARK NAME *****_MODEL1
REMARK  3 active torsions:
REMARK  status: ('A' for Active; 'I' for Inactive)
REMARK    1  A    between atoms: C_6  and  N_7 
REMARK       I    between atoms: N_7  and  C_8 
REMARK       I    between atoms: C_8  and  N_10 
REMARK    2  A    between atoms: N_13  and  C_14 
REMARK    3  A    between atoms: C_16  and  C_17 
ROOT
ATOM      1  N   LIG d   1      46.554  14.998  67.626  0.00  0.00    -0.198 NA
ATOM      2  C   LIG d   1      46.896  15.507  68.921  0.00  0.00     0.325 C 
ATOM      3  O   LIG d   1      47.993  15.097  69.389  0.00  0.00    -0.251 OA
ATOM      4  N   LIG d   1      46.244  16.690  69.397  0.00  0.00    -0.200 NA
ATOM      5  C   LIG d   1      46.723  17.177  70.693  0.00  0.00     0.105 C 
ATOM      6  C   LIG d   1      48.178  17.549  70.417  0.00  0.00     0.121 C 
ATOM      7  N   LIG d   1      48.120  18.660  69.468  0.00  0.00    -0.325 N 
ATOM      8  C   LIG d   1      47.322  18.597  68.266  0.00  0.00     0.121 C 
ATOM      9  C   LIG d   1      46.089  17.751  68.404  0.00  0.00     0.105 C 
ENDROOT
BRANCH   7  10
ATOM     10  C   LIG d   1      48.617  19.905  69.978  0.00  0.00     0.191 C 
ATOM     11  N   LIG d   1      48.618  21.115  69.366  0.00  0.00    -0.202 NA
ATOM     12  C   LIG d   1      48.644  22.114  70.270  0.00  0.00     0.172 C 
ATOM     13  N   LIG d   1      49.673  21.943  71.139  0.00  0.00    -0.187 NA
ATOM     14  S   LIG d   1      49.660  20.253  71.297  0.00  0.00     0.052 SA
BRANCH  12  15
ATOM     15  C   LIG d   1      48.019  23.425  70.029  0.00  0.00     0.036 C 
ATOM     16  C   LIG d   1      46.693  23.662  70.383  0.00  0.00     0.003 C 
ATOM     17  C   LIG d   1      46.029  24.818  70.070  0.00  0.00     0.000 C 
ATOM     18  C   LIG d   1      46.775  25.829  69.487  0.00  0.00     0.000 C 
ATOM     19  C   LIG d   1      48.162  25.740  69.516  0.00  0.00     0.000 C 
ATOM     20  C   LIG d   1      48.788  24.582  69.962  0.00  0.00     0.003 C 
ENDBRANCH  12  15
ENDBRANCH   7  10
BRANCH   1  21
ATOM     21  C   LIG d   1      46.790  13.611  67.355  0.00  0.00     0.085 C 
ATOM     22  C   LIG d   1      46.681  13.227  66.028  0.00  0.00     0.019 C 
ATOM     23  C   LIG d   1      46.792  11.903  65.628  0.00  0.00     0.001 C 
ATOM     24  C   LIG d   1      46.597  10.949  66.611  0.00  0.00    -0.004 C 
ATOM     25  C   LIG d   1      46.297  11.320  67.914  0.00  0.00    -0.020 C 
ATOM     26  C   LIG d   1      45.963  10.237  68.870  0.00  0.00     0.031 C 
ATOM     27  C   LIG d   1      46.478  12.632  68.291  0.00  0.00     0.015 C 
ENDBRANCH   1  21
TORSDOF 3
ENDMDL
MODEL 2
REMARK NAME *****_MODEL2
REMARK  3 active torsions:
REMARK  status: ('A' for Active; 'I' for Inactive)
REMARK    1  A    between atoms: C_6  and  N_7 
REMARK       I    between atoms: N_7  and  C_8 
REMARK       I    between atoms: C_8  and  N_10 
REMARK    2  A    between atoms: N_13  and  C_14 
REMARK    3  A    between atoms: C_16  and  C_17 
ROOT
ATOM      1  N   LIG d   1      16.584  24.980  86.129  0.00  0.00    -0.198 NA
ATOM      2  C   LIG d   1      17.751  24.480  86.793  0.00  0.00     0.325 C 
ATOM      3  O   LIG d   1      18.734  25.271  86.824  0.00  0.00    -0.251 OA
ATOM      4  N   LIG d   1      17.621  23.371  87.690  0.00  0.00    -0.200 NA
ATOM      5  C   LIG d   1      18.854  22.991  88.382  0.00  0.00     0.105 C 
ATOM      6  C   LIG d   1      19.179  24.218  89.231  0.00  0.00     0.121 C 
ATOM      7  N   LIG d   1      18.088  24.318  90.198  0.00  0.00    -0.325 N 
ATOM      8  C   LIG d   1      16.702  24.268  89.794  0.00  0.00     0.121 C 
ATOM      9  C   LIG d   1      16.458  23.428  88.575  0.00  0.00     0.105 C 
ENDROOT
BRANCH   7  10
ATOM     10  C   LIG d   1      18.482  24.120  91.563  0.00  0.00     0.191 C 
ATOM     11  N   LIG d   1      19.668  23.652  92.028  0.00  0.00    -0.202 NA
ATOM     12  C   LIG d   1      19.900  24.086  93.283  0.00  0.00     0.172 C 
ATOM     13  N   LIG d   1      18.846  23.798  94.090  0.00  0.00    -0.187 NA
ATOM     14  S   LIG d   1      17.560  24.045  93.009  0.00  0.00     0.052 SA
BRANCH  12  15
ATOM     15  C   LIG d   1      21.254  24.331  93.805  0.00  0.00     0.036 C 
ATOM     16  C   LIG d   1      22.070  25.311  93.247  0.00  0.00     0.003 C 
ATOM     17  C   LIG d   1      23.377  25.496  93.612  0.00  0.00     0.000 C 
ATOM     18  C   LIG d   1      23.842  24.740  94.676  0.00  0.00     0.000 C 
ATOM     19  C   LIG d   1      22.921  24.078  95.479  0.00  0.00     0.000 C 
ATOM     20  C   LIG d   1      21.578  24.027  95.123  0.00  0.00     0.003 C 
ENDBRANCH  12  15
ENDBRANCH   7  10
BRANCH   1  21
ATOM     21  C   LIG d   1      16.753  25.704  84.905  0.00  0.00     0.085 C 
ATOM     22  C   LIG d   1      15.591  25.998  84.211  0.00  0.00     0.019 C 
ATOM     23  C   LIG d   1      15.605  26.612  82.967  0.00  0.00     0.001 C 
ATOM     24  C   LIG d   1      16.795  26.542  82.264  0.00  0.00    -0.004 C 
ATOM     25  C   LIG d   1      17.895  25.879  82.790  0.00  0.00    -0.020 C 
ATOM     26  C   LIG d   1      19.081  25.728  81.915  0.00  0.00     0.031 C 
ATOM     27  C   LIG d   1      17.893  25.544  84.126  0.00  0.00     0.015 C 
ENDBRANCH   1  21
TORSDOF 3
ENDMDL
MODEL 3
REMARK NAME *****_MODEL3
REMARK  3 active torsions:
REMARK  status: ('A' for Active; 'I' for Inactive)
REMARK    1  A    between atoms: C_6  and  N_7 
REMARK       I    between atoms: N_7  and  C_8 
REMARK       I    between atoms: C_8  and  N_10 
REMARK    2  A    between atoms: N_13  and  C_14 
REMARK    3  A    between atoms: C_16  and  C_17 
ROOT
ATOM      1  N   LIG d   1      17.122   9.023  78.457  0.00  0.00    -0.198 NA
ATOM      2  C   LIG d   1      17.039   8.164  79.601  0.00  0.00     0.325 C 
ATOM      3  O   LIG d   1      17.880   7.225  79.633  0.00  0.00    -0.251 OA
ATOM      4  N   LIG d   1      16.348   8.626  80.768  0.00  0.00    -0.200 NA
ATOM      5  C   LIG d   1      16.393   7.710  81.911  0.00  0.00     0.105 C 
ATOM      6  C   LIG d   1      17.877   7.652  82.263  0.00  0.00     0.121 C 
ATOM      7  N   LIG d   1      18.223   9.002  82.705  0.00  0.00    -0.325 N 
ATOM      8  C   LIG d   1      17.877  10.171  81.930  0.00  0.00     0.121 C 
ATOM      9  C   LIG d   1      16.615  10.016  81.133  0.00  0.00     0.105 C 
ENDROOT
BRANCH   7  10
ATOM     10  C   LIG d   1      18.603   9.098  84.084  0.00  0.00     0.191 C 
ATOM     11  N   LIG d   1      19.766   9.571  84.597  0.00  0.00    -0.202 NA
ATOM     12  C   LIG d   1      19.595  10.011  85.859  0.00  0.00     0.172 C 
ATOM     13  N   LIG d   1      19.013   9.052  86.624  0.00  0.00    -0.187 NA
ATOM     14  S   LIG d   1      17.948   8.367  85.493  0.00  0.00     0.052 SA
BRANCH  12  15
ATOM     15  C   LIG d   1      20.384  11.113  86.433  0.00  0.00     0.036 C 
ATOM     16  C   LIG d   1      20.448  11.307  87.811  0.00  0.00     0.003 C 
ATOM     17  C   LIG d   1      21.065  12.384  88.388  0.00  0.00     0.000 C 
ATOM     18  C   LIG d   1      21.758  13.236  87.543  0.00  0.00     0.000 C 
ATOM     19  C   LIG d   1      22.032  12.815  86.247  0.00  0.00     0.000 C 
ATOM     20  C   LIG d   1      21.475  11.642  85.750  0.00  0.00     0.003 C 
ENDBRANCH  12  15
ENDBRANCH   7  10
BRANCH   1  21
ATOM     21  C   LIG d   1      17.338   8.427  77.172  0.00  0.00     0.085 C 
ATOM     22  C   LIG d   1      16.536   7.339  76.868  0.00  0.00     0.019 C 
ATOM     23  C   LIG d   1      16.694   6.604  75.702  0.00  0.00     0.001 C 
ATOM     24  C   LIG d   1      17.917   6.723  75.065  0.00  0.00    -0.004 C 
ATOM     25  C   LIG d   1      18.918   7.529  75.590  0.00  0.00    -0.020 C 
ATOM     26  C   LIG d   1      20.242   7.488  74.925  0.00  0.00     0.031 C 
ATOM     27  C   LIG d   1      18.595   8.430  76.580  0.00  0.00     0.015 C 
ENDBRANCH   1  21
TORSDOF 3
ENDMDL
MODEL 4
REMARK NAME *****_MODEL4
REMARK  3 active torsions:
REMARK  status: ('A' for Active; 'I' for Inactive)
REMARK    1  A    between atoms: C_6  and  N_7 
REMARK       I    between atoms: N_7  and  C_8 
REMARK       I    between atoms: C_8  and  N_10 
REMARK    2  A    between atoms: N_13  and  C_14 
REMARK    3  A    between atoms: C_16  and  C_17 
ROOT
ATOM      1  N   LIG d   1      17.270   9.005  78.309  0.00  0.00    -0.198 NA
ATOM      2  C   LIG d   1      17.145   8.161  79.460  0.00  0.00     0.325 C 
ATOM      3  O   LIG d   1      17.990   7.228  79.538  0.00  0.00    -0.251 OA
ATOM      4  N   LIG d   1      16.405   8.632  80.592  0.00  0.00    -0.200 NA
ATOM      5  C   LIG d   1      16.408   7.732  81.747  0.00  0.00     0.105 C 
ATOM      6  C   LIG d   1      17.877   7.689  82.160  0.00  0.00     0.121 C 
ATOM      7  N   LIG d   1      18.196   9.046  82.598  0.00  0.00    -0.325 N 
ATOM      8  C   LIG d   1      17.875  10.203  81.795  0.00  0.00     0.121 C 
ATOM      9  C   LIG d   1      16.648  10.029  80.949  0.00  0.00     0.105 C 
ENDROOT
BRANCH   7  10
ATOM     10  C   LIG d   1      18.518   9.162  83.991  0.00  0.00     0.191 C 
ATOM     11  N   LIG d   1      19.686   9.576  84.544  0.00  0.00    -0.202 NA
ATOM     12  C   LIG d   1      19.486  10.067  85.783  0.00  0.00     0.172 C 
ATOM     13  N   LIG d   1      18.809   9.172  86.547  0.00  0.00    -0.187 NA
ATOM     14  S   LIG d   1      17.754   8.520  85.387  0.00  0.00     0.052 SA
BRANCH  12  15
ATOM     15  C   LIG d   1      20.319  11.135  86.361  0.00  0.00     0.036 C 
ATOM     16  C   LIG d   1      20.341  11.362  87.735  0.00  0.00     0.003 C 
ATOM     17  C   LIG d   1      20.999  12.416  88.310  0.00  0.00     0.000 C 
ATOM     18  C   LIG d   1      21.776  13.200  87.473  0.00  0.00     0.000 C 
ATOM     19  C   LIG d   1      22.074  12.728  86.200  0.00  0.00     0.000 C 
ATOM     20  C   LIG d   1      21.466  11.578  85.710  0.00  0.00     0.003 C 
ENDBRANCH  12  15
ENDBRANCH   7  10
BRANCH   1  21
ATOM     21  C   LIG d   1      17.543   8.394  77.042  0.00  0.00     0.085 C 
ATOM     22  C   LIG d   1      16.781   7.278  76.733  0.00  0.00     0.019 C 
ATOM     23  C   LIG d   1      16.996   6.529  75.585  0.00  0.00     0.001 C 
ATOM     24  C   LIG d   1      18.234   6.672  74.984  0.00  0.00    -0.004 C 
ATOM     25  C   LIG d   1      19.195   7.516  75.524  0.00  0.00    -0.020 C 
ATOM     26  C   LIG d   1      20.540   7.502  74.901  0.00  0.00     0.031 C 
ATOM     27  C   LIG d   1      18.816   8.424  76.488  0.00  0.00     0.015 C 
ENDBRANCH   1  21
TORSDOF 3
ENDMDL
MODEL 5
REMARK NAME *****_MODEL5
REMARK  3 active torsions:
REMARK  status: ('A' for Active; 'I' for Inactive)
REMARK    1  A    between atoms: C_6  and  N_7 
REMARK       I    between atoms: N_7  and  C_8 
REMARK       I    between atoms: C_8  and  N_10 
REMARK    2  A    between atoms: N_13  and  C_14 
REMARK    3  A    between atoms: C_16  and  C_17 
ROOT
ATOM      1  N   LIG d   1      17.703  26.420  82.644  0.00  0.00    -0.198 NA
ATOM      2  C   LIG d   1      17.137  25.419  83.500  0.00  0.00     0.325 C 
ATOM      3  O   LIG d   1      17.272  24.230  83.102  0.00  0.00    -0.251 OA
ATOM      4  N   LIG d   1      16.849  25.751  84.863  0.00  0.00    -0.200 NA
ATOM      5  C   LIG d   1      16.353  24.638  85.676  0.00  0.00     0.105 C 
ATOM      6  C   LIG d   1      17.525  23.660  85.692  0.00  0.00     0.121 C 
ATOM      7  N   LIG d   1      18.595  24.351  86.410  0.00  0.00    -0.325 N 
ATOM      8  C   LIG d   1      18.995  25.698  86.074  0.00  0.00     0.121 C 
ATOM      9  C   LIG d   1      17.878  26.542  85.535  0.00  0.00     0.105 C 
ENDROOT
BRANCH   7  10
ATOM     10  C   LIG d   1      18.963  23.745  87.657  0.00  0.00     0.191 C 
ATOM     11  N   LIG d   1      19.121  24.348  88.862  0.00  0.00    -0.202 NA
ATOM     12  C   LIG d   1      18.935  23.471  89.869  0.00  0.00     0.172 C 
ATOM     13  N   LIG d   1      19.723  22.378  89.700  0.00  0.00    -0.187 NA
ATOM     14  S   LIG d   1      19.659  22.217  88.012  0.00  0.00     0.052 SA
BRANCH  12  15
ATOM     15  C   LIG d   1      18.396  23.866  91.181  0.00  0.00     0.036 C 
ATOM     16  C   LIG d   1      17.037  24.116  91.351  0.00  0.00     0.003 C 
ATOM     17  C   LIG d   1      16.504  24.602  92.515  0.00  0.00     0.000 C 
ATOM     18  C   LIG d   1      17.364  24.722  93.594  0.00  0.00     0.000 C 
ATOM     19  C   LIG d   1      18.602  24.093  93.537  0.00  0.00     0.000 C 
ATOM     20  C   LIG d   1      19.043  23.503  92.358  0.00  0.00     0.003 C 
ENDBRANCH  12  15
ENDBRANCH   7  10
BRANCH   1  21
ATOM     21  C   LIG d   1      17.527  26.284  81.229  0.00  0.00     0.085 C 
ATOM     22  C   LIG d   1      18.612  25.780  80.531  0.00  0.00     0.019 C 
ATOM     23  C   LIG d   1      18.622  25.680  79.147  0.00  0.00     0.001 C 
ATOM     24  C   LIG d   1      17.709  26.469  78.470  0.00  0.00    -0.004 C 
ATOM     25  C   LIG d   1      16.850  27.314  79.159  0.00  0.00    -0.020 C 
ATOM     26  C   LIG d   1      16.004  28.227  78.354  0.00  0.00     0.031 C 
ATOM     27  C   LIG d   1      16.708  27.153  80.519  0.00  0.00     0.015 C 
ENDBRANCH   1  21
TORSDOF 3
ENDMDL
MODEL 6
REMARK NAME *****_MODEL6
REMARK  3 active torsions:
REMARK  status: ('A' for Active; 'I' for Inactive)
REMARK    1  A    between atoms: C_6  and  N_7 
REMARK       I    between atoms: N_7  and  C_8 
REMARK       I    between atoms: C_8  and  N_10 
REMARK    2  A    between atoms: N_13  and  C_14 
REMARK    3  A    between atoms: C_16  and  C_17 
ROOT
ATOM      1  N   LIG d   1      44.029  14.124  67.620  0.00  0.00    -0.198 NA
ATOM      2  C   LIG d   1      44.213  15.542  67.533  0.00  0.00     0.325 C 
ATOM      3  O   LIG d   1      43.475  16.229  68.291  0.00  0.00    -0.251 OA
ATOM      4  N   LIG d   1      45.420  16.053  66.955  0.00  0.00    -0.200 NA
ATOM      5  C   LIG d   1      45.549  17.511  66.990  0.00  0.00     0.105 C 
ATOM      6  C   LIG d   1      45.597  17.829  68.483  0.00  0.00     0.121 C 
ATOM      7  N   LIG d   1      46.833  17.218  68.968  0.00  0.00    -0.325 N 
ATOM      8  C   LIG d   1      47.171  15.844  68.678  0.00  0.00     0.121 C 
ATOM      9  C   LIG d   1      46.639  15.357  67.362  0.00  0.00     0.105 C 
ENDROOT
BRANCH   7  10
ATOM     10  C   LIG d   1      47.815  18.152  69.438  0.00  0.00     0.191 C 
ATOM     11  N   LIG d   1      48.264  19.271  68.816  0.00  0.00    -0.202 NA
ATOM     12  C   LIG d   1      48.740  20.162  69.708  0.00  0.00     0.172 C 
ATOM     13  N   LIG d   1      49.663  19.581  70.517  0.00  0.00    -0.187 NA
ATOM     14  S   LIG d   1      48.983  18.034  70.689  0.00  0.00     0.052 SA
BRANCH  12  15
ATOM     15  C   LIG d   1      48.678  21.617  69.493  0.00  0.00     0.036 C 
ATOM     16  C   LIG d   1      47.483  22.240  69.144  0.00  0.00     0.003 C 
ATOM     17  C   LIG d   1      47.396  23.565  68.813  0.00  0.00     0.000 C 
ATOM     18  C   LIG d   1      48.545  24.324  68.965  0.00  0.00     0.000 C 
ATOM     19  C   LIG d   1      49.604  23.795  69.694  0.00  0.00     0.000 C 
ATOM     20  C   LIG d   1      49.584  22.471  70.114  0.00  0.00     0.003 C 
ENDBRANCH  12  15
ENDBRANCH   7  10
BRANCH   1  21
ATOM     21  C   LIG d   1      42.693  13.614  67.706  0.00  0.00     0.085 C 
ATOM     22  C   LIG d   1      42.573  12.233  67.728  0.00  0.00     0.019 C 
ATOM     23  C   LIG d   1      41.340  11.596  67.717  0.00  0.00     0.001 C 
ATOM     24  C   LIG d   1      40.268  12.346  67.268  0.00  0.00    -0.004 C 
ATOM     25  C   LIG d   1      40.442  13.657  66.847  0.00  0.00    -0.020 C 
ATOM     26  C   LIG d   1      39.271  14.341  66.249  0.00  0.00     0.031 C 
ATOM     27  C   LIG d   1      41.623  14.301  67.146  0.00  0.00     0.015 C 
ENDBRANCH   1  21
TORSDOF 3
ENDMDL
MODEL 7
REMARK NAME *****_MODEL7
REMARK  3 active torsions:
REMARK  status: ('A' for Active; 'I' for Inactive)
REMARK    1  A    between atoms: C_6  and  N_7 
REMARK       I    between atoms: N_7  and  C_8 
REMARK       I    between atoms: C_8  and  N_10 
REMARK    2  A    between atoms: N_13  and  C_14 
REMARK    3  A    between atoms: C_16  and  C_17 
ROOT
ATOM      1  N   LIG d   1      21.051  23.999  93.926  0.00  0.00    -0.198 NA
ATOM      2  C   LIG d   1      19.979  24.814  93.435  0.00  0.00     0.325 C 
ATOM      3  O   LIG d   1      20.324  25.929  92.957  0.00  0.00    -0.251 OA
ATOM      4  N   LIG d   1      18.718  24.201  93.139  0.00  0.00    -0.200 NA
ATOM      5  C   LIG d   1      17.717  25.101  92.563  0.00  0.00     0.105 C 
ATOM      6  C   LIG d   1      18.336  25.517  91.232  0.00  0.00     0.121 C 
ATOM      7  N   LIG d   1      18.405  24.291  90.438  0.00  0.00    -0.325 N 
ATOM      8  C   LIG d   1      18.975  23.072  90.962  0.00  0.00     0.121 C 
ATOM      9  C   LIG d   1      18.806  22.917  92.445  0.00  0.00     0.105 C 
ENDROOT
BRANCH   7  10
ATOM     10  C   LIG d   1      17.575  24.292  89.268  0.00  0.00     0.191 C 
ATOM     11  N   LIG d   1      17.552  25.204  88.263  0.00  0.00    -0.202 NA
ATOM     12  C   LIG d   1      17.088  24.654  87.123  0.00  0.00     0.172 C 
ATOM     13  N   LIG d   1      15.890  24.052  87.338  0.00  0.00    -0.187 NA
ATOM     14  S   LIG d   1      16.142  23.424  88.895  0.00  0.00     0.052 SA
BRANCH  12  15
ATOM     15  C   LIG d   1      17.525  25.096  85.789  0.00  0.00     0.036 C 
ATOM     16  C   LIG d   1      16.600  25.488  84.824  0.00  0.00     0.003 C 
ATOM     17  C   LIG d   1      16.945  25.789  83.534  0.00  0.00     0.000 C 
ATOM     18  C   LIG d   1      18.298  25.820  83.239  0.00  0.00     0.000 C 
ATOM     19  C   LIG d   1      19.211  25.835  84.287  0.00  0.00     0.000 C 
ATOM     20  C   LIG d   1      18.789  25.647  85.597  0.00  0.00     0.003 C 
ENDBRANCH  12  15
ENDBRANCH   7  10
BRANCH   1  21
ATOM     21  C   LIG d   1      22.094  24.628  94.680  0.00  0.00     0.085 C 
ATOM     22  C   LIG d   1      23.350  24.624  94.094  0.00  0.00     0.019 C 
ATOM     23  C   LIG d   1      24.473  25.113  94.745  0.00  0.00     0.001 C 
ATOM     24  C   LIG d   1      24.386  25.215  96.123  0.00  0.00    -0.004 C 
ATOM     25  C   LIG d   1      23.233  24.832  96.794  0.00  0.00    -0.020 C 
ATOM     26  C   LIG d   1      23.274  24.839  98.275  0.00  0.00     0.031 C 
ATOM     27  C   LIG d   1      22.080  24.625  96.069  0.00  0.00     0.015 C 
ENDBRANCH   1  21
TORSDOF 3
ENDMDL
MODEL 8
REMARK NAME *****_MODEL8
REMARK  3 active torsions:
REMARK  status: ('A' for Active; 'I' for Inactive)
REMARK    1  A    between atoms: C_6  and  N_7 
REMARK       I    between atoms: N_7  and  C_8 
REMARK       I    between atoms: C_8  and  N_10 
REMARK    2  A    between atoms: N_13  and  C_14 
REMARK    3  A    between atoms: C_16  and  C_17 
ROOT
ATOM      1  N   LIG d   1      18.473  23.860  86.296  0.00  0.00    -0.198 NA
ATOM      2  C   LIG d   1      17.518  24.927  86.249  0.00  0.00     0.325 C 
ATOM      3  O   LIG d   1      17.786  25.924  86.973  0.00  0.00    -0.251 OA
ATOM      4  N   LIG d   1      16.601  24.991  85.150  0.00  0.00    -0.200 NA
ATOM      5  C   LIG d   1      15.723  26.164  85.150  0.00  0.00     0.105 C 
ATOM      6  C   LIG d   1      16.691  27.333  84.994  0.00  0.00     0.121 C 
ATOM      7  N   LIG d   1      17.287  27.169  83.669  0.00  0.00    -0.325 N 
ATOM      8  C   LIG d   1      17.854  25.913  83.237  0.00  0.00     0.121 C 
ATOM      9  C   LIG d   1      17.188  24.711  83.841  0.00  0.00     0.105 C 
ENDROOT
BRANCH   7  10
ATOM     10  C   LIG d   1      16.960  28.208  82.736  0.00  0.00     0.191 C 
ATOM     11  N   LIG d   1      17.245  28.258  81.411  0.00  0.00    -0.202 NA
ATOM     12  C   LIG d   1      16.372  29.051  80.758  0.00  0.00     0.172 C 
ATOM     13  N   LIG d   1      16.305  30.273  81.347  0.00  0.00    -0.187 NA
ATOM     14  S   LIG d   1      16.455  29.831  82.980  0.00  0.00     0.052 SA
BRANCH  12  15
ATOM     15  C   LIG d   1      15.982  28.823  79.357  0.00  0.00     0.036 C 
ATOM     16  C   LIG d   1      16.581  27.819  78.601  0.00  0.00     0.003 C 
ATOM     17  C   LIG d   1      16.345  27.646  77.263  0.00  0.00     0.000 C 
ATOM     18  C   LIG d   1      15.363  28.440  76.694  0.00  0.00     0.000 C 
ATOM     19  C   LIG d   1      14.497  29.136  77.529  0.00  0.00     0.000 C 
ATOM     20  C   LIG d   1      14.716  29.177  78.901  0.00  0.00     0.003 C 
ENDBRANCH  12  15
ENDBRANCH   7  10
BRANCH   1  21
ATOM     21  C   LIG d   1      19.022  23.493  87.567  0.00  0.00     0.085 C 
ATOM     22  C   LIG d   1      19.761  22.321  87.591  0.00  0.00     0.019 C 
ATOM     23  C   LIG d   1      20.275  21.792  88.766  0.00  0.00     0.001 C 
ATOM     24  C   LIG d   1      19.688  22.227  89.941  0.00  0.00    -0.004 C 
ATOM     25  C   LIG d   1      18.636  23.133  89.918  0.00  0.00    -0.020 C 
ATOM     26  C   LIG d   1      17.973  23.436  91.209  0.00  0.00     0.031 C 
ATOM     27  C   LIG d   1      18.372  23.816  88.752  0.00  0.00     0.015 C 
ENDBRANCH   1  21
TORSDOF 3
ENDMDL
MODEL 9
REMARK NAME *****_MODEL9
REMARK  3 active torsions:
REMARK  status: ('A' for Active; 'I' for Inactive)
REMARK    1  A    between atoms: C_6  and  N_7 
REMARK       I    between atoms: N_7  and  C_8 
REMARK       I    between atoms: C_8  and  N_10 
REMARK    2  A    between atoms: N_13  and  C_14 
REMARK    3  A    between atoms: C_16  and  C_17 
ROOT
ATOM      1  N   LIG d   1      45.883  23.866  69.405  0.00  0.00    -0.198 NA
ATOM      2  C   LIG d   1      46.038  23.146  68.176  0.00  0.00     0.325 C 
ATOM      3  O   LIG d   1      47.222  22.823  67.886  0.00  0.00    -0.251 OA
ATOM      4  N   LIG d   1      44.896  22.504  67.597  0.00  0.00    -0.200 NA
ATOM      5  C   LIG d   1      45.175  21.724  66.390  0.00  0.00     0.105 C 
ATOM      6  C   LIG d   1      46.105  20.620  66.886  0.00  0.00     0.121 C 
ATOM      7  N   LIG d   1      45.300  19.821  67.808  0.00  0.00    -0.325 N 
ATOM      8  C   LIG d   1      44.532  20.425  68.872  0.00  0.00     0.121 C 
ATOM      9  C   LIG d   1      44.035  21.804  68.549  0.00  0.00     0.105 C 
ENDROOT
BRANCH   7  10
ATOM     10  C   LIG d   1      45.057  18.475  67.374  0.00  0.00     0.191 C 
ATOM     11  N   LIG d   1      45.971  17.508  67.107  0.00  0.00    -0.202 NA
ATOM     12  C   LIG d   1      45.432  16.281  67.253  0.00  0.00     0.172 C 
ATOM     13  N   LIG d   1      44.294  16.171  66.521  0.00  0.00    -0.187 NA
ATOM     14  S   LIG d   1      43.658  17.733  66.713  0.00  0.00     0.052 SA
BRANCH  12  15
ATOM     15  C   LIG d   1      46.217  15.112  67.680  0.00  0.00     0.036 C 
ATOM     16  C   LIG d   1      46.315  13.980  66.874  0.00  0.00     0.003 C 
ATOM     17  C   LIG d   1      46.928  12.824  67.276  0.00  0.00     0.000 C 
ATOM     18  C   LIG d   1      47.582  12.855  68.497  0.00  0.00     0.000 C 
ATOM     19  C   LIG d   1      47.828  14.086  69.093  0.00  0.00     0.000 C 
ATOM     20  C   LIG d   1      47.279  15.250  68.569  0.00  0.00     0.003 C 
ENDBRANCH  12  15
ENDBRANCH   7  10
BRANCH   1  21
ATOM     21  C   LIG d   1      46.832  24.893  69.717  0.00  0.00     0.085 C 
ATOM     22  C   LIG d   1      48.166  24.549  69.567  0.00  0.00     0.019 C 
ATOM     23  C   LIG d   1      49.197  25.408  69.919  0.00  0.00     0.001 C 
ATOM     24  C   LIG d   1      48.871  26.428  70.796  0.00  0.00    -0.004 C 
ATOM     25  C   LIG d   1      47.581  26.557  71.291  0.00  0.00    -0.020 C 
ATOM     26  C   LIG d   1      47.351  27.587  72.332  0.00  0.00     0.031 C 
ATOM     27  C   LIG d   1      46.564  25.850  70.688  0.00  0.00     0.015 C 
ENDBRANCH   1  21
TORSDOF 3
ENDMDL
MODEL 10
REMARK NAME *****_MODEL10
REMARK  3 active torsions:
REMARK  status: ('A' for Active; 'I' for Inactive)
REMARK    1  A    between atoms: C_6  and  N_7 
REMARK       I    between atoms: N_7  and  C_8 
REMARK       I    between atoms: C_8  and  N_10 
REMARK    2  A    between atoms: N_13  and  C_14 
REMARK    3  A    between atoms: C_16  and  C_17 
ROOT
ATOM      1  N   LIG d   1      16.734   9.810  83.437  0.00  0.00    -0.198 NA
ATOM      2  C   LIG d   1      18.029  10.272  83.842  0.00  0.00     0.325 C 
ATOM      3  O   LIG d   1      18.050  11.409  84.386  0.00  0.00    -0.251 OA
ATOM      4  N   LIG d   1      19.091   9.322  83.989  0.00  0.00    -0.200 NA
ATOM      5  C   LIG d   1      20.350   9.880  84.488  0.00  0.00     0.105 C 
ATOM      6  C   LIG d   1      19.991  10.372  85.888  0.00  0.00     0.121 C 
ATOM      7  N   LIG d   1      19.656   9.168  86.647  0.00  0.00    -0.325 N 
ATOM      8  C   LIG d   1      18.727   8.183  86.145  0.00  0.00     0.121 C 
ATOM      9  C   LIG d   1      18.714   8.073  84.648  0.00  0.00     0.105 C 
ENDROOT
BRANCH   7  10
ATOM     10  C   LIG d   1      20.555   8.875  87.726  0.00  0.00     0.191 C 
ATOM     11  N   LIG d   1      21.140   7.688  88.024  0.00  0.00    -0.202 NA
ATOM     12  C   LIG d   1      22.282   7.872  88.716  0.00  0.00     0.172 C 
ATOM     13  N   LIG d   1      22.061   8.657  89.801  0.00  0.00    -0.187 NA
ATOM     14  S   LIG d   1      20.917   9.739  89.164  0.00  0.00     0.052 SA
BRANCH  12  15
ATOM     15  C   LIG d   1      23.428   6.953  88.622  0.00  0.00     0.036 C 
ATOM     16  C   LIG d   1      24.622   7.226  89.283  0.00  0.00     0.003 C 
ATOM     17  C   LIG d   1      25.754   6.471  89.131  0.00  0.00     0.000 C 
ATOM     18  C   LIG d   1      25.637   5.315  88.376  0.00  0.00     0.000 C 
ATOM     19  C   LIG d   1      24.367   4.841  88.070  0.00  0.00     0.000 C 
ATOM     20  C   LIG d   1      23.239   5.599  88.361  0.00  0.00     0.003 C 
ENDBRANCH  12  15
ENDBRANCH   7  10
BRANCH   1  21
ATOM     21  C   LIG d   1      15.844  10.742  82.812  0.00  0.00     0.085 C 
ATOM     22  C   LIG d   1      14.985  11.420  83.662  0.00  0.00     0.019 C 
ATOM     23  C   LIG d   1      14.006  12.284  83.193  0.00  0.00     0.001 C 
ATOM     24  C   LIG d   1      13.639  12.131  81.867  0.00  0.00    -0.004 C 
ATOM     25  C   LIG d   1      14.225  11.153  81.075  0.00  0.00    -0.020 C 
ATOM     26  C   LIG d   1      13.675  10.964  79.712  0.00  0.00     0.031 C 
ATOM     27  C   LIG d   1      15.369  10.531  81.523  0.00  0.00     0.015 C 
ENDBRANCH   1  21
TORSDOF 3
ENDMDL
