MODEL 1
REMARK NAME *****_MODEL1
REMARK  4 active torsions:
REMARK  status: ('A' for Active; 'I' for Inactive)
REMARK    1  A    between atoms: C_5  and  C_8 
REMARK    2  A    between atoms: C_9  and  C_14 
REMARK    3  A    between atoms: C_17  and  N_19 
REMARK    4  A    between atoms: N_19  and  C_20 
ROOT
ATOM      1  C   LIG d   1      18.934   6.373  34.558  0.00  0.00     0.021 A 
ATOM      2  C   LIG d   1      18.140   5.289  35.026  0.00  0.00     0.011 A 
ATOM      3  C   LIG d   1      18.750   4.033  35.240  0.00  0.00     0.021 A 
ATOM      4  C   LIG d   1      20.127   3.880  35.017  0.00  0.00     0.099 A 
ATOM      5  N   LIG d   1      20.865   4.936  34.598  0.00  0.00    -0.242 NA
ATOM      6  C   LIG d   1      20.319   6.157  34.365  0.00  0.00     0.099 A 
ENDROOT
BRANCH   2   7
ATOM      7  C   LIG d   1      16.753   5.398  35.281  0.00  0.00     0.052 A 
ATOM      8  C   LIG d   1      16.048   5.113  36.459  0.00  0.00     0.108 A 
ATOM      9  N   LIG d   1      14.695   5.257  36.406  0.00  0.00    -0.219 NA
ATOM     10  C   LIG d   1      14.176   5.676  35.229  0.00  0.00     0.194 A 
ATOM     11  S   LIG d   1      15.524   5.884  34.129  0.00  0.00    -0.047 SA
BRANCH  10  12
ATOM     12  N   LIG d   1      12.889   5.856  34.847  0.00  0.00    -0.221 NA
BRANCH  12  13
ATOM     13  C   LIG d   1      12.292   6.959  34.309  0.00  0.00     0.084 A 
ATOM     14  C   LIG d   1      13.136   8.066  34.065  0.00  0.00     0.021 A 
ATOM     15  C   LIG d   1      12.641   9.233  33.454  0.00  0.00     0.029 A 
ATOM     16  C   LIG d   1      11.283   9.318  33.100  0.00  0.00     0.131 A 
ATOM     17  C   LIG d   1      10.420   8.238  33.371  0.00  0.00     0.029 A 
ATOM     18  O   LIG d   1      10.819  10.434  32.486  0.00  0.00    -0.190 OA
ATOM     19  C   LIG d   1      10.919   7.070  33.976  0.00  0.00     0.021 A 
ENDBRANCH  12  13
ENDBRANCH  10  12
ENDBRANCH   2   7
BRANCH   1  20
ATOM     20  C   LIG d   1      18.367   7.626  34.202  0.00  0.00     0.012 A 
ATOM     21  C   LIG d   1      18.344   8.123  32.873  0.00  0.00     0.058 A 
ATOM     22  C   LIG d   1      17.825   9.410  32.616  0.00  0.00     0.007 A 
ATOM     23 CL   LIG d   1      18.949   7.225  31.565  0.00  0.00    -0.082 c 
ATOM     24  C   LIG d   1      17.302  10.206  33.662  0.00  0.00    -0.021 A 
ATOM     25  C   LIG d   1      16.767  11.565  33.418  0.00  0.00     0.031 C 
ATOM     26  C   LIG d   1      17.296   9.688  34.974  0.00  0.00    -0.004 A 
ATOM     27  C   LIG d   1      17.823   8.416  35.240  0.00  0.00     0.001 A 
ENDBRANCH   1  20
TORSDOF 4
ENDMDL
MODEL 2
REMARK NAME *****_MODEL2
REMARK  4 active torsions:
REMARK  status: ('A' for Active; 'I' for Inactive)
REMARK    1  A    between atoms: C_5  and  C_8 
REMARK    2  A    between atoms: C_9  and  C_14 
REMARK    3  A    between atoms: C_17  and  N_19 
REMARK    4  A    between atoms: N_19  and  C_20 
ROOT
ATOM      1  C   LIG d   1      19.613  11.076  32.576  0.00  0.00     0.021 A 
ATOM      2  C   LIG d   1      18.376  11.693  32.235  0.00  0.00     0.011 A 
ATOM      3  C   LIG d   1      18.383  13.008  31.723  0.00  0.00     0.021 A 
ATOM      4  C   LIG d   1      19.603  13.676  31.532  0.00  0.00     0.099 A 
ATOM      5  N   LIG d   1      20.767  13.055  31.839  0.00  0.00    -0.242 NA
ATOM      6  C   LIG d   1      20.808  11.797  32.348  0.00  0.00     0.099 A 
ENDROOT
BRANCH   2   7
ATOM      7  C   LIG d   1      17.123  11.055  32.393  0.00  0.00     0.052 A 
ATOM      8  C   LIG d   1      16.000  11.484  33.116  0.00  0.00     0.108 A 
ATOM      9  N   LIG d   1      14.936  10.635  33.142  0.00  0.00    -0.219 NA
ATOM     10  C   LIG d   1      15.068   9.476  32.456  0.00  0.00     0.194 A 
ATOM     11  S   LIG d   1      16.669   9.490  31.745  0.00  0.00    -0.047 SA
BRANCH  10  12
ATOM     12  N   LIG d   1      14.228   8.420  32.339  0.00  0.00    -0.221 NA
BRANCH  12  13
ATOM     13  C   LIG d   1      13.911   7.461  33.257  0.00  0.00     0.084 A 
ATOM     14  C   LIG d   1      14.957   6.585  33.629  0.00  0.00     0.021 A 
ATOM     15  C   LIG d   1      14.759   5.600  34.614  0.00  0.00     0.029 A 
ATOM     16  C   LIG d   1      13.502   5.460  35.226  0.00  0.00     0.131 A 
ATOM     17  C   LIG d   1      12.438   6.300  34.839  0.00  0.00     0.029 A 
ATOM     18  O   LIG d   1      13.327   4.528  36.194  0.00  0.00    -0.190 OA
ATOM     19  C   LIG d   1      12.639   7.289  33.859  0.00  0.00     0.021 A 
ENDBRANCH  12  13
ENDBRANCH  10  12
ENDBRANCH   2   7
BRANCH   1  20
ATOM     20  C   LIG d   1      19.674   9.806  33.211  0.00  0.00     0.012 A 
ATOM     21  C   LIG d   1      19.251   9.581  34.547  0.00  0.00     0.058 A 
ATOM     22  C   LIG d   1      19.413   8.303  35.125  0.00  0.00     0.007 A 
ATOM     23 CL   LIG d   1      18.573  10.813  35.497  0.00  0.00    -0.082 c 
ATOM     24  C   LIG d   1      19.967   7.234  34.384  0.00  0.00    -0.021 A 
ATOM     25  C   LIG d   1      20.161   5.890  34.976  0.00  0.00     0.031 C 
ATOM     26  C   LIG d   1      20.350   7.459  33.046  0.00  0.00    -0.004 A 
ATOM     27  C   LIG d   1      20.207   8.728  32.468  0.00  0.00     0.001 A 
ENDBRANCH   1  20
TORSDOF 4
ENDMDL
MODEL 3
REMARK NAME *****_MODEL3
REMARK  4 active torsions:
REMARK  status: ('A' for Active; 'I' for Inactive)
REMARK    1  A    between atoms: C_5  and  C_8 
REMARK    2  A    between atoms: C_9  and  C_14 
REMARK    3  A    between atoms: C_17  and  N_19 
REMARK    4  A    between atoms: N_19  and  C_20 
ROOT
ATOM      1  C   LIG d   1      19.571  10.906  32.586  0.00  0.00     0.021 A 
ATOM      2  C   LIG d   1      18.377  11.585  32.211  0.00  0.00     0.011 A 
ATOM      3  C   LIG d   1      18.468  12.884  31.666  0.00  0.00     0.021 A 
ATOM      4  C   LIG d   1      19.727  13.474  31.475  0.00  0.00     0.099 A 
ATOM      5  N   LIG d   1      20.849  12.794  31.814  0.00  0.00    -0.242 NA
ATOM      6  C   LIG d   1      20.810  11.550  32.355  0.00  0.00     0.099 A 
ENDROOT
BRANCH   2   7
ATOM      7  C   LIG d   1      17.087  11.025  32.368  0.00  0.00     0.052 A 
ATOM      8  C   LIG d   1      15.976  11.547  33.047  0.00  0.00     0.108 A 
ATOM      9  N   LIG d   1      14.865  10.761  33.085  0.00  0.00    -0.219 NA
ATOM     10  C   LIG d   1      14.945   9.568  32.452  0.00  0.00     0.194 A 
ATOM     11  S   LIG d   1      16.559   9.461  31.776  0.00  0.00    -0.047 SA
BRANCH  10  12
ATOM     12  N   LIG d   1      14.049   8.556  32.361  0.00  0.00    -0.221 NA
BRANCH  12  13
ATOM     13  C   LIG d   1      13.774   7.561  33.253  0.00  0.00     0.084 A 
ATOM     14  C   LIG d   1      14.856   6.723  33.605  0.00  0.00     0.021 A 
ATOM     15  C   LIG d   1      14.701   5.706  34.564  0.00  0.00     0.029 A 
ATOM     16  C   LIG d   1      13.451   5.496  35.171  0.00  0.00     0.131 A 
ATOM     17  C   LIG d   1      12.352   6.298  34.804  0.00  0.00     0.029 A 
ATOM     18  O   LIG d   1      13.317   4.533  36.115  0.00  0.00    -0.190 OA
ATOM     19  C   LIG d   1      12.510   7.319  33.849  0.00  0.00     0.021 A 
ENDBRANCH  12  13
ENDBRANCH  10  12
ENDBRANCH   2   7
BRANCH   1  20
ATOM     20  C   LIG d   1      19.550   9.653  33.254  0.00  0.00     0.012 A 
ATOM     21  C   LIG d   1      19.153   9.496  34.607  0.00  0.00     0.058 A 
ATOM     22  C   LIG d   1      19.229   8.225  35.215  0.00  0.00     0.007 A 
ATOM     23 CL   LIG d   1      18.605  10.803  35.541  0.00  0.00    -0.082 c 
ATOM     24  C   LIG d   1      19.672   7.095  34.489  0.00  0.00    -0.021 A 
ATOM     25  C   LIG d   1      19.776   5.756  35.113  0.00  0.00     0.031 C 
ATOM     26  C   LIG d   1      20.030   7.254  33.135  0.00  0.00    -0.004 A 
ATOM     27  C   LIG d   1      19.971   8.516  32.526  0.00  0.00     0.001 A 
ENDBRANCH   1  20
TORSDOF 4
ENDMDL
MODEL 4
REMARK NAME *****_MODEL4
REMARK  4 active torsions:
REMARK  status: ('A' for Active; 'I' for Inactive)
REMARK    1  A    between atoms: C_5  and  C_8 
REMARK    2  A    between atoms: C_9  and  C_14 
REMARK    3  A    between atoms: C_17  and  N_19 
REMARK    4  A    between atoms: N_19  and  C_20 
ROOT
ATOM      1  C   LIG d   1      19.539  11.094  32.515  0.00  0.00     0.021 A 
ATOM      2  C   LIG d   1      18.288  11.634  32.102  0.00  0.00     0.011 A 
ATOM      3  C   LIG d   1      18.244  12.945  31.581  0.00  0.00     0.021 A 
ATOM      4  C   LIG d   1      19.429  13.685  31.452  0.00  0.00     0.099 A 
ATOM      5  N   LIG d   1      20.610  13.137  31.827  0.00  0.00    -0.242 NA
ATOM      6  C   LIG d   1      20.699  11.887  32.347  0.00  0.00     0.099 A 
ENDROOT
BRANCH   2   7
ATOM      7  C   LIG d   1      17.069  10.922  32.195  0.00  0.00     0.052 A 
ATOM      8  C   LIG d   1      15.789  11.401  32.509  0.00  0.00     0.108 A 
ATOM      9  N   LIG d   1      14.795  10.474  32.583  0.00  0.00    -0.219 NA
ATOM     10  C   LIG d   1      15.143   9.191  32.331  0.00  0.00     0.194 A 
ATOM     11  S   LIG d   1      16.862   9.193  31.987  0.00  0.00    -0.047 SA
BRANCH  10  12
ATOM     12  N   LIG d   1      14.412   8.052  32.382  0.00  0.00    -0.221 NA
BRANCH  12  13
ATOM     13  C   LIG d   1      14.238   7.181  33.418  0.00  0.00     0.084 A 
ATOM     14  C   LIG d   1      12.922   7.069  33.922  0.00  0.00     0.021 A 
ATOM     15  C   LIG d   1      12.616   6.154  34.947  0.00  0.00     0.029 A 
ATOM     16  C   LIG d   1      13.629   5.353  35.500  0.00  0.00     0.131 A 
ATOM     17  C   LIG d   1      14.953   5.479  35.035  0.00  0.00     0.029 A 
ATOM     18  O   LIG d   1      13.321   4.454  36.466  0.00  0.00    -0.190 OA
ATOM     19  C   LIG d   1      15.257   6.390  34.006  0.00  0.00     0.021 A 
ENDBRANCH  12  13
ENDBRANCH  10  12
ENDBRANCH   2   7
BRANCH   1  20
ATOM     20  C   LIG d   1      19.642   9.834  33.161  0.00  0.00     0.012 A 
ATOM     21  C   LIG d   1      19.185   9.596  34.484  0.00  0.00     0.058 A 
ATOM     22  C   LIG d   1      19.391   8.332  35.077  0.00  0.00     0.007 A 
ATOM     23 CL   LIG d   1      18.415  10.798  35.401  0.00  0.00    -0.082 c 
ATOM     24  C   LIG d   1      20.022   7.287  34.364  0.00  0.00    -0.021 A 
ATOM     25  C   LIG d   1      20.262   5.958  34.973  0.00  0.00     0.031 C 
ATOM     26  C   LIG d   1      20.439   7.522  33.038  0.00  0.00    -0.004 A 
ATOM     27  C   LIG d   1      20.252   8.779  32.445  0.00  0.00     0.001 A 
ENDBRANCH   1  20
TORSDOF 4
ENDMDL
MODEL 5
REMARK NAME *****_MODEL5
REMARK  4 active torsions:
REMARK  status: ('A' for Active; 'I' for Inactive)
REMARK    1  A    between atoms: C_5  and  C_8 
REMARK    2  A    between atoms: C_9  and  C_14 
REMARK    3  A    between atoms: C_17  and  N_19 
REMARK    4  A    between atoms: N_19  and  C_20 
ROOT
ATOM      1  C   LIG d   1      18.925   8.644  33.827  0.00  0.00     0.021 A 
ATOM      2  C   LIG d   1      19.328   9.349  32.658  0.00  0.00     0.011 A 
ATOM      3  C   LIG d   1      19.319  10.761  32.670  0.00  0.00     0.021 A 
ATOM      4  C   LIG d   1      18.942  11.447  33.836  0.00  0.00     0.099 A 
ATOM      5  N   LIG d   1      18.588  10.750  34.943  0.00  0.00    -0.242 NA
ATOM      6  C   LIG d   1      18.568   9.394  34.973  0.00  0.00     0.099 A 
ENDROOT
BRANCH   2   7
ATOM      7  C   LIG d   1      19.734   8.704  31.466  0.00  0.00     0.052 A 
ATOM      8  C   LIG d   1      19.116   7.648  30.781  0.00  0.00     0.108 A 
ATOM      9  N   LIG d   1      19.762   7.181  29.677  0.00  0.00    -0.219 NA
ATOM     10  C   LIG d   1      20.922   7.795  29.349  0.00  0.00     0.194 A 
ATOM     11  S   LIG d   1      21.190   9.043  30.550  0.00  0.00    -0.047 SA
BRANCH  10  12
ATOM     12  N   LIG d   1      21.812   7.531  28.363  0.00  0.00    -0.221 NA
BRANCH  12  13
ATOM     13  C   LIG d   1      23.137   7.216  28.454  0.00  0.00     0.084 A 
ATOM     14  C   LIG d   1      23.453   5.839  28.428  0.00  0.00     0.021 A 
ATOM     15  C   LIG d   1      24.790   5.403  28.451  0.00  0.00     0.029 A 
ATOM     16  C   LIG d   1      25.834   6.341  28.524  0.00  0.00     0.131 A 
ATOM     17  C   LIG d   1      25.535   7.717  28.589  0.00  0.00     0.029 A 
ATOM     18  O   LIG d   1      27.120   5.915  28.517  0.00  0.00    -0.190 OA
ATOM     19  C   LIG d   1      24.197   8.151  28.559  0.00  0.00     0.021 A 
ENDBRANCH  12  13
ENDBRANCH  10  12
ENDBRANCH   2   7
BRANCH   1  20
ATOM     20  C   LIG d   1      18.789   7.230  33.848  0.00  0.00     0.012 A 
ATOM     21  C   LIG d   1      17.597   6.555  33.481  0.00  0.00     0.058 A 
ATOM     22  C   LIG d   1      17.524   5.150  33.599  0.00  0.00     0.007 A 
ATOM     23 CL   LIG d   1      16.226   7.387  32.923  0.00  0.00    -0.082 c 
ATOM     24  C   LIG d   1      18.632   4.399  34.053  0.00  0.00    -0.021 A 
ATOM     25  C   LIG d   1      18.573   2.927  34.199  0.00  0.00     0.031 C 
ATOM     26  C   LIG d   1      19.826   5.077  34.380  0.00  0.00    -0.004 A 
ATOM     27  C   LIG d   1      19.902   6.473  34.280  0.00  0.00     0.001 A 
ENDBRANCH   1  20
TORSDOF 4
ENDMDL
MODEL 6
REMARK NAME *****_MODEL6
REMARK  4 active torsions:
REMARK  status: ('A' for Active; 'I' for Inactive)
REMARK    1  A    between atoms: C_5  and  C_8 
REMARK    2  A    between atoms: C_9  and  C_14 
REMARK    3  A    between atoms: C_17  and  N_19 
REMARK    4  A    between atoms: N_19  and  C_20 
ROOT
ATOM      1  C   LIG d   1      19.429   6.392  34.666  0.00  0.00     0.021 A 
ATOM      2  C   LIG d   1      18.472   5.348  34.809  0.00  0.00     0.011 A 
ATOM      3  C   LIG d   1      18.921   4.036  35.074  0.00  0.00     0.021 A 
ATOM      4  C   LIG d   1      20.294   3.784  35.220  0.00  0.00     0.099 A 
ATOM      5  N   LIG d   1      21.182   4.801  35.107  0.00  0.00    -0.242 NA
ATOM      6  C   LIG d   1      20.798   6.075  34.837  0.00  0.00     0.099 A 
ENDROOT
BRANCH   2   7
ATOM      7  C   LIG d   1      17.077   5.554  34.688  0.00  0.00     0.052 A 
ATOM      8  C   LIG d   1      16.035   5.007  35.451  0.00  0.00     0.108 A 
ATOM      9  N   LIG d   1      14.770   5.339  35.075  0.00  0.00    -0.219 NA
ATOM     10  C   LIG d   1      14.651   6.173  34.017  0.00  0.00     0.194 A 
ATOM     11  S   LIG d   1      16.279   6.539  33.477  0.00  0.00    -0.047 SA
BRANCH  10  12
ATOM     12  N   LIG d   1      13.551   6.635  33.375  0.00  0.00    -0.221 NA
BRANCH  12  13
ATOM     13  C   LIG d   1      13.091   7.914  33.256  0.00  0.00     0.084 A 
ATOM     14  C   LIG d   1      14.076   8.928  33.226  0.00  0.00     0.021 A 
ATOM     15  C   LIG d   1      13.719  10.277  33.042  0.00  0.00     0.029 A 
ATOM     16  C   LIG d   1      12.366  10.634  32.908  0.00  0.00     0.131 A 
ATOM     17  C   LIG d   1      11.370   9.640  32.974  0.00  0.00     0.029 A 
ATOM     18  O   LIG d   1      12.033  11.932  32.702  0.00  0.00    -0.190 OA
ATOM     19  C   LIG d   1      11.729   8.291  33.152  0.00  0.00     0.021 A 
ENDBRANCH  12  13
ENDBRANCH  10  12
ENDBRANCH   2   7
BRANCH   1  20
ATOM     20  C   LIG d   1      19.060   7.707  34.277  0.00  0.00     0.012 A 
ATOM     21  C   LIG d   1      18.991   8.130  32.924  0.00  0.00     0.058 A 
ATOM     22  C   LIG d   1      18.685   9.475  32.627  0.00  0.00     0.007 A 
ATOM     23 CL   LIG d   1      19.291   7.070  31.633  0.00  0.00    -0.082 c 
ATOM     24  C   LIG d   1      18.420  10.406  33.657  0.00  0.00    -0.021 A 
ATOM     25  C   LIG d   1      18.113  11.826  33.369  0.00  0.00     0.031 C 
ATOM     26  C   LIG d   1      18.456   9.968  34.997  0.00  0.00    -0.004 A 
ATOM     27  C   LIG d   1      18.773   8.636  35.302  0.00  0.00     0.001 A 
ENDBRANCH   1  20
TORSDOF 4
ENDMDL
MODEL 7
REMARK NAME *****_MODEL7
REMARK  4 active torsions:
REMARK  status: ('A' for Active; 'I' for Inactive)
REMARK    1  A    between atoms: C_5  and  C_8 
REMARK    2  A    between atoms: C_9  and  C_14 
REMARK    3  A    between atoms: C_17  and  N_19 
REMARK    4  A    between atoms: N_19  and  C_20 
ROOT
ATOM      1  C   LIG d   1      16.747  11.198  29.950  0.00  0.00     0.021 A 
ATOM      2  C   LIG d   1      15.412  11.549  29.602  0.00  0.00     0.011 A 
ATOM      3  C   LIG d   1      15.146  12.035  28.304  0.00  0.00     0.021 A 
ATOM      4  C   LIG d   1      16.189  12.138  27.370  0.00  0.00     0.099 A 
ATOM      5  N   LIG d   1      17.446  11.771  27.719  0.00  0.00    -0.242 NA
ATOM      6  C   LIG d   1      17.751  11.313  28.960  0.00  0.00     0.099 A 
ENDROOT
BRANCH   2   7
ATOM      7  C   LIG d   1      14.325  11.446  30.502  0.00  0.00     0.052 A 
ATOM      8  C   LIG d   1      13.467  12.453  30.968  0.00  0.00     0.108 A 
ATOM      9  N   LIG d   1      12.531  12.077  31.882  0.00  0.00    -0.219 NA
ATOM     10  C   LIG d   1      12.515  10.770  32.231  0.00  0.00     0.194 A 
ATOM     11  S   LIG d   1      13.797   9.990  31.325  0.00  0.00    -0.047 SA
BRANCH  10  12
ATOM     12  N   LIG d   1      11.759  10.108  33.139  0.00  0.00    -0.221 NA
BRANCH  12  13
ATOM     13  C   LIG d   1      11.914   8.849  33.641  0.00  0.00     0.084 A 
ATOM     14  C   LIG d   1      13.169   8.562  34.225  0.00  0.00     0.021 A 
ATOM     15  C   LIG d   1      13.417   7.317  34.831  0.00  0.00     0.029 A 
ATOM     16  C   LIG d   1      12.418   6.328  34.840  0.00  0.00     0.131 A 
ATOM     17  C   LIG d   1      11.175   6.584  34.229  0.00  0.00     0.029 A 
ATOM     18  O   LIG d   1      12.655   5.141  35.450  0.00  0.00    -0.190 OA
ATOM     19  C   LIG d   1      10.926   7.832  33.629  0.00  0.00     0.021 A 
ENDBRANCH  12  13
ENDBRANCH  10  12
ENDBRANCH   2   7
BRANCH   1  20
ATOM     20  C   LIG d   1      17.109  10.822  31.271  0.00  0.00     0.012 A 
ATOM     21  C   LIG d   1      17.053   9.485  31.745  0.00  0.00     0.058 A 
ATOM     22  C   LIG d   1      17.362   9.208  33.094  0.00  0.00     0.007 A 
ATOM     23 CL   LIG d   1      16.595   8.193  30.744  0.00  0.00    -0.082 c 
ATOM     24  C   LIG d   1      17.755  10.240  33.978  0.00  0.00    -0.021 A 
ATOM     25  C   LIG d   1      18.068   9.974  35.401  0.00  0.00     0.031 C 
ATOM     26  C   LIG d   1      17.843  11.559  33.488  0.00  0.00    -0.004 A 
ATOM     27  C   LIG d   1      17.523  11.846  32.153  0.00  0.00     0.001 A 
ENDBRANCH   1  20
TORSDOF 4
ENDMDL
MODEL 8
REMARK NAME *****_MODEL8
REMARK  4 active torsions:
REMARK  status: ('A' for Active; 'I' for Inactive)
REMARK    1  A    between atoms: C_5  and  C_8 
REMARK    2  A    between atoms: C_9  and  C_14 
REMARK    3  A    between atoms: C_17  and  N_19 
REMARK    4  A    between atoms: N_19  and  C_20 
ROOT
ATOM      1  C   LIG d   1      19.003   9.462  33.041  0.00  0.00     0.021 A 
ATOM      2  C   LIG d   1      19.094   9.818  31.666  0.00  0.00     0.011 A 
ATOM      3  C   LIG d   1      18.572  11.059  31.242  0.00  0.00     0.021 A 
ATOM      4  C   LIG d   1      18.000  11.933  32.180  0.00  0.00     0.099 A 
ATOM      5  N   LIG d   1      17.951  11.580  33.488  0.00  0.00    -0.242 NA
ATOM      6  C   LIG d   1      18.426  10.391  33.938  0.00  0.00     0.099 A 
ENDROOT
BRANCH   2   7
ATOM      7  C   LIG d   1      19.677   8.980  30.686  0.00  0.00     0.052 A 
ATOM      8  C   LIG d   1      19.294   7.691  30.287  0.00  0.00     0.108 A 
ATOM      9  N   LIG d   1      20.077   7.089  29.350  0.00  0.00    -0.219 NA
ATOM     10  C   LIG d   1      21.131   7.803  28.891  0.00  0.00     0.194 A 
ATOM     11  S   LIG d   1      21.104   9.340  29.734  0.00  0.00    -0.047 SA
BRANCH  10  12
ATOM     12  N   LIG d   1      22.111   7.468  28.019  0.00  0.00    -0.221 NA
BRANCH  12  13
ATOM     13  C   LIG d   1      23.398   7.087  28.267  0.00  0.00     0.084 A 
ATOM     14  C   LIG d   1      23.621   5.698  28.401  0.00  0.00     0.021 A 
ATOM     15  C   LIG d   1      24.918   5.189  28.594  0.00  0.00     0.029 A 
ATOM     16  C   LIG d   1      26.012   6.067  28.681  0.00  0.00     0.131 A 
ATOM     17  C   LIG d   1      25.802   7.457  28.588  0.00  0.00     0.029 A 
ATOM     18  O   LIG d   1      27.262   5.567  28.839  0.00  0.00    -0.190 OA
ATOM     19  C   LIG d   1      24.505   7.964  28.388  0.00  0.00     0.021 A 
ENDBRANCH  12  13
ENDBRANCH  10  12
ENDBRANCH   2   7
BRANCH   1  20
ATOM     20  C   LIG d   1      19.391   8.181  33.517  0.00  0.00     0.012 A 
ATOM     21  C   LIG d   1      18.486   7.101  33.679  0.00  0.00     0.058 A 
ATOM     22  C   LIG d   1      18.942   5.882  34.226  0.00  0.00     0.007 A 
ATOM     23 CL   LIG d   1      16.847   7.229  33.257  0.00  0.00    -0.082 c 
ATOM     24  C   LIG d   1      20.296   5.710  34.593  0.00  0.00    -0.021 A 
ATOM     25  C   LIG d   1      20.793   4.446  35.183  0.00  0.00     0.031 C 
ATOM     26  C   LIG d   1      21.196   6.778  34.394  0.00  0.00    -0.004 A 
ATOM     27  C   LIG d   1      20.749   7.997  33.865  0.00  0.00     0.001 A 
ENDBRANCH   1  20
TORSDOF 4
ENDMDL
MODEL 9
REMARK NAME *****_MODEL9
REMARK  4 active torsions:
REMARK  status: ('A' for Active; 'I' for Inactive)
REMARK    1  A    between atoms: C_5  and  C_8 
REMARK    2  A    between atoms: C_9  and  C_14 
REMARK    3  A    between atoms: C_17  and  N_19 
REMARK    4  A    between atoms: N_19  and  C_20 
ROOT
ATOM      1  C   LIG d   1      16.624  11.354  29.812  0.00  0.00     0.021 A 
ATOM      2  C   LIG d   1      15.270  11.650  29.486  0.00  0.00     0.011 A 
ATOM      3  C   LIG d   1      14.962  12.114  28.189  0.00  0.00     0.021 A 
ATOM      4  C   LIG d   1      15.983  12.250  27.235  0.00  0.00     0.099 A 
ATOM      5  N   LIG d   1      17.259  11.935  27.564  0.00  0.00    -0.242 NA
ATOM      6  C   LIG d   1      17.604  11.500  28.803  0.00  0.00     0.099 A 
ENDROOT
BRANCH   2   7
ATOM      7  C   LIG d   1      14.204  11.512  30.406  0.00  0.00     0.052 A 
ATOM      8  C   LIG d   1      13.333  12.494  30.900  0.00  0.00     0.108 A 
ATOM      9  N   LIG d   1      12.424  12.087  31.828  0.00  0.00    -0.219 NA
ATOM     10  C   LIG d   1      12.446  10.776  32.164  0.00  0.00     0.194 A 
ATOM     11  S   LIG d   1      13.727  10.036  31.224  0.00  0.00    -0.047 SA
BRANCH  10  12
ATOM     12  N   LIG d   1      11.724  10.088  33.080  0.00  0.00    -0.221 NA
BRANCH  12  13
ATOM     13  C   LIG d   1      12.010   8.903  33.694  0.00  0.00     0.084 A 
ATOM     14  C   LIG d   1      10.945   7.979  33.790  0.00  0.00     0.021 A 
ATOM     15  C   LIG d   1      11.143   6.702  34.346  0.00  0.00     0.029 A 
ATOM     16  C   LIG d   1      12.408   6.338  34.838  0.00  0.00     0.131 A 
ATOM     17  C   LIG d   1      13.472   7.261  34.785  0.00  0.00     0.029 A 
ATOM     18  O   LIG d   1      12.598   5.096  35.347  0.00  0.00    -0.190 OA
ATOM     19  C   LIG d   1      13.273   8.536  34.223  0.00  0.00     0.021 A 
ENDBRANCH  12  13
ENDBRANCH  10  12
ENDBRANCH   2   7
BRANCH   1  20
ATOM     20  C   LIG d   1      17.024  11.004  31.129  0.00  0.00     0.012 A 
ATOM     21  C   LIG d   1      17.325  11.960  32.134  0.00  0.00     0.058 A 
ATOM     22  C   LIG d   1      17.784  11.527  33.396  0.00  0.00     0.007 A 
ATOM     23 CL   LIG d   1      17.175  13.629  31.862  0.00  0.00    -0.082 c 
ATOM     24  C   LIG d   1      17.926  10.151  33.686  0.00  0.00    -0.021 A 
ATOM     25  C   LIG d   1      18.422   9.675  34.998  0.00  0.00     0.031 C 
ATOM     26  C   LIG d   1      17.590   9.207  32.694  0.00  0.00    -0.004 A 
ATOM     27  C   LIG d   1      17.146   9.629  31.432  0.00  0.00     0.001 A 
ENDBRANCH   1  20
TORSDOF 4
ENDMDL
MODEL 10
REMARK NAME *****_MODEL10
REMARK  4 active torsions:
REMARK  status: ('A' for Active; 'I' for Inactive)
REMARK    1  A    between atoms: C_5  and  C_8 
REMARK    2  A    between atoms: C_9  and  C_14 
REMARK    3  A    between atoms: C_17  and  N_19 
REMARK    4  A    between atoms: N_19  and  C_20 
ROOT
ATOM      1  C   LIG d   1      17.678   5.187  34.249  0.00  0.00     0.021 A 
ATOM      2  C   LIG d   1      18.833   5.952  34.579  0.00  0.00     0.011 A 
ATOM      3  C   LIG d   1      20.058   5.286  34.797  0.00  0.00     0.021 A 
ATOM      4  C   LIG d   1      20.128   3.891  34.661  0.00  0.00     0.099 A 
ATOM      5  N   LIG d   1      19.020   3.190  34.320  0.00  0.00    -0.242 NA
ATOM      6  C   LIG d   1      17.818   3.785  34.115  0.00  0.00     0.099 A 
ENDROOT
BRANCH   2   7
ATOM      7  C   LIG d   1      18.817   7.360  34.710  0.00  0.00     0.052 A 
ATOM      8  C   LIG d   1      18.174   8.149  35.676  0.00  0.00     0.108 A 
ATOM      9  N   LIG d   1      18.283   9.497  35.528  0.00  0.00    -0.219 NA
ATOM     10  C   LIG d   1      19.012   9.935  34.476  0.00  0.00     0.194 A 
ATOM     11  S   LIG d   1      19.580   8.509  33.628  0.00  0.00    -0.047 SA
BRANCH  10  12
ATOM     12  N   LIG d   1      19.255  11.191  34.031  0.00  0.00    -0.221 NA
BRANCH  12  13
ATOM     13  C   LIG d   1      18.566  11.933  33.116  0.00  0.00     0.084 A 
ATOM     14  C   LIG d   1      17.205  11.597  32.940  0.00  0.00     0.021 A 
ATOM     15  C   LIG d   1      16.384  12.337  32.070  0.00  0.00     0.029 A 
ATOM     16  C   LIG d   1      16.920  13.414  31.343  0.00  0.00     0.131 A 
ATOM     17  C   LIG d   1      18.285  13.738  31.478  0.00  0.00     0.029 A 
ATOM     18  O   LIG d   1      16.116  14.139  30.528  0.00  0.00    -0.190 OA
ATOM     19  C   LIG d   1      19.103  13.001  32.353  0.00  0.00     0.021 A 
ENDBRANCH  12  13
ENDBRANCH  10  12
ENDBRANCH   2   7
BRANCH   1  20
ATOM     20  C   LIG d   1      16.389   5.774  34.139  0.00  0.00     0.012 A 
ATOM     21  C   LIG d   1      15.350   5.558  35.081  0.00  0.00     0.058 A 
ATOM     22  C   LIG d   1      14.076   6.123  34.858  0.00  0.00     0.007 A 
ATOM     23 CL   LIG d   1      15.578   4.613  36.472  0.00  0.00    -0.082 c 
ATOM     24  C   LIG d   1      13.824   6.924  33.720  0.00  0.00    -0.021 A 
ATOM     25  C   LIG d   1      12.490   7.513  33.458  0.00  0.00     0.031 C 
ATOM     26  C   LIG d   1      14.873   7.162  32.809  0.00  0.00    -0.004 A 
ATOM     27  C   LIG d   1      16.138   6.594  33.015  0.00  0.00     0.001 A 
ENDBRANCH   1  20
TORSDOF 4
ENDMDL
