@<TRIPOS>MOLECULE
*****_MODEL1
 27 30 0 0 0
SMALL
GASTEIGER

@<TRIPOS>ATOM
      1  N         17.0380    7.0550   32.6410 N.am    1  LIG1       -0.1622
      2  C         18.2870    7.7560   32.6720 C.2     1  LIG1        0.3275
      3  O         19.2110    7.1820   33.3110 O.2     1  LIG1       -0.2504
      4  N         18.5370    8.7780   31.7000 N.am    1  LIG1       -0.2597
      5  C         19.8730    9.3740   31.7640 C.3     1  LIG1        0.1124
      6  C         20.7990    8.2070   31.4330 C.3     1  LIG1        0.0957
      7  N         20.4900    7.8470   30.0500 N.3     1  LIG1       -0.2470
      8  C         19.1340    7.6290   29.6030 C.3     1  LIG1        0.0957
      9  C         18.1160    8.4500   30.3390 C.3     1  LIG1        0.1124
     10  C         21.5630    8.0670   29.1240 C.3     1  LIG1        0.1997
     11  N         22.8810    8.2340   29.4000 N.3     1  LIG1       -0.1714
     12  C         23.6440    7.8840   28.3460 C.3     1  LIG1        0.1818
     13  N         23.2350    8.5330   27.2250 N.3     1  LIG1       -0.1386
     14  S         21.5560    8.5410   27.4740 S.3     1  LIG1       -0.0143
     15  C         24.9990    7.3290   28.4920 C.ar    1  LIG1        0.0109
     16  C         26.1090    8.1650   28.5860 C.ar    1  LIG1       -0.0015
     17  C         27.3980    7.7020   28.6000 C.ar    1  LIG1       -0.0002
     18  C         27.5680    6.3280   28.6500 C.ar    1  LIG1       -0.0000
     19  C         26.4750    5.5300   28.9690 C.ar    1  LIG1       -0.0002
     20  C         25.2020    6.0770   29.0640 C.ar    1  LIG1       -0.0015
     21  C         16.5760    6.4310   33.8440 C.ar    1  LIG1        0.0746
     22  C         17.2580    5.2880   34.2320 C.ar    1  LIG1        0.0166
     23  C         16.8660    4.5260   35.3230 C.ar    1  LIG1        0.0010
     24  C         15.5610    4.6940   35.7510 C.ar    1  LIG1       -0.0042
     25  C         14.7070    5.5740   35.1000 C.ar    1  LIG1       -0.0206
     26  C         13.2890    5.5890   35.5310 C.3     1  LIG1        0.0311
     27  C         15.2390    6.4870   34.2180 C.ar    1  LIG1        0.0124
@<TRIPOS>BOND
     1    13    14    1
     2    13    12    1
     3    14    10    1
     4    12    15    1
     5    12    11    1
     6    15    16   ar
     7    15    20   ar
     8    16    17   ar
     9    17    18   ar
    10    18    19   ar
    11    19    20   ar
    12    10    11    1
    13    10     7    1
    14     8     7    1
    15     8     9    1
    16     7     6    1
    17     9     4    1
    18     6     5    1
    19     4     5    1
    20     4     2   am
    21     1     2   am
    22     1    21    1
    23     2     3    2
    24    21    27   ar
    25    21    22   ar
    26    27    25   ar
    27    22    23   ar
    28    25    26    1
    29    25    24   ar
    30    23    24   ar
@<TRIPOS>MOLECULE
*****_MODEL2
 27 30 0 0 0
SMALL
GASTEIGER

@<TRIPOS>ATOM
      1  N         17.0100    7.0620   32.6030 N.am    1  LIG1       -0.1622
      2  C         18.2290    7.8160   32.6200 C.2     1  LIG1        0.3275
      3  O         19.1610    7.3180   33.3080 O.2     1  LIG1       -0.2504
      4  N         18.4560    8.7940   31.5980 N.am    1  LIG1       -0.2597
      5  C         19.7640    9.4490   31.6540 C.3     1  LIG1        0.1124
      6  C         20.7460    8.3070   31.4070 C.3     1  LIG1        0.0957
      7  N         20.4820    7.8590   30.0410 N.3     1  LIG1       -0.2470
      8  C         19.1470    7.5590   29.5790 C.3     1  LIG1        0.0957
      9  C         18.0800    8.3740   30.2490 C.3     1  LIG1        0.1124
     10  C         21.5650    8.0740   29.1250 C.3     1  LIG1        0.1997
     11  N         22.8800    8.2410   29.4140 N.3     1  LIG1       -0.1714
     12  C         23.6540    7.8860   28.3690 C.3     1  LIG1        0.1818
     13  N         23.2580    8.5310   27.2420 N.3     1  LIG1       -0.1386
     14  S         21.5760    8.5420   27.4730 S.3     1  LIG1       -0.0143
     15  C         25.0070    7.3300   28.5310 C.ar    1  LIG1        0.0109
     16  C         26.1180    8.1640   28.6260 C.ar    1  LIG1       -0.0015
     17  C         27.4050    7.6990   28.6550 C.ar    1  LIG1       -0.0002
     18  C         27.5720    6.3250   28.7190 C.ar    1  LIG1       -0.0000
     19  C         26.4760    5.5320   29.0360 C.ar    1  LIG1       -0.0002
     20  C         25.2020    6.0830   29.1160 C.ar    1  LIG1       -0.0015
     21  C         16.5490    6.4840   33.8300 C.ar    1  LIG1        0.0746
     22  C         17.1820    5.3160   34.2240 C.ar    1  LIG1        0.0166
     23  C         16.7820    4.5960   35.3400 C.ar    1  LIG1        0.0010
     24  C         15.4980    4.8380   35.7960 C.ar    1  LIG1       -0.0042
     25  C         14.6720    5.7470   35.1490 C.ar    1  LIG1       -0.0206
     26  C         13.2680    5.8420   35.6150 C.3     1  LIG1        0.0311
     27  C         15.2270    6.6160   34.2350 C.ar    1  LIG1        0.0124
@<TRIPOS>BOND
     1    13    14    1
     2    13    12    1
     3    14    10    1
     4    12    15    1
     5    12    11    1
     6    15    16   ar
     7    15    20   ar
     8    16    17   ar
     9    17    18   ar
    10    18    19   ar
    11    19    20   ar
    12    10    11    1
    13    10     7    1
    14     8     7    1
    15     8     9    1
    16     7     6    1
    17     9     4    1
    18     6     5    1
    19     4     5    1
    20     4     2   am
    21     1     2   am
    22     1    21    1
    23     2     3    2
    24    21    22   ar
    25    21    27   ar
    26    22    23   ar
    27    27    25   ar
    28    25    26    1
    29    25    24   ar
    30    23    24   ar
@<TRIPOS>MOLECULE
*****_MODEL3
 27 30 0 0 0
SMALL
GASTEIGER

@<TRIPOS>ATOM
      1  N         16.9540    7.1140   32.4620 N.am    1  LIG1       -0.1622
      2  C         18.1680    7.8750   32.4900 C.2     1  LIG1        0.3275
      3  O         19.0760    7.4140   33.2330 O.2     1  LIG1       -0.2504
      4  N         18.4290    8.8070   31.4340 N.am    1  LIG1       -0.2597
      5  C         19.7320    9.4720   31.5080 C.3     1  LIG1        0.1124
      6  C         20.7260    8.3240   31.3490 C.3     1  LIG1        0.0957
      7  N         20.5150    7.8150   29.9960 N.3     1  LIG1       -0.2470
      8  C         19.1990    7.4860   29.5000 C.3     1  LIG1        0.0957
      9  C         18.1040    8.3240   30.0920 C.3     1  LIG1        0.1124
     10  C         21.6310    7.9940   29.1110 C.3     1  LIG1        0.1997
     11  N         22.9430    8.1080   29.4380 N.3     1  LIG1       -0.1714
     12  C         23.7310    7.7310   28.4110 C.3     1  LIG1        0.1818
     13  N         23.3910    8.3990   27.2790 N.3     1  LIG1       -0.1386
     14  S         21.7050    8.4730   27.4650 S.3     1  LIG1       -0.0143
     15  C         25.0570    7.1230   28.6060 C.ar    1  LIG1        0.0109
     16  C         26.2120    7.9000   28.5870 C.ar    1  LIG1       -0.0015
     17  C         27.4730    7.3710   28.6400 C.ar    1  LIG1       -0.0002
     18  C         27.5690    6.0050   28.8510 C.ar    1  LIG1       -0.0000
     19  C         26.4420    5.3120   29.2760 C.ar    1  LIG1       -0.0002
     20  C         25.2010    5.9370   29.3210 C.ar    1  LIG1       -0.0015
     21  C         16.4500    6.5890   33.6960 C.ar    1  LIG1        0.0746
     22  C         17.1060    5.4740   34.1920 C.ar    1  LIG1        0.0166
     23  C         16.6740    4.8040   35.3270 C.ar    1  LIG1        0.0010
     24  C         15.3590    5.0170   35.7000 C.ar    1  LIG1       -0.0042
     25  C         14.5350    5.8520   34.9580 C.ar    1  LIG1       -0.0206
     26  C         13.1050    5.9130   35.3440 C.3     1  LIG1        0.0311
     27  C         15.1030    6.6880   34.0230 C.ar    1  LIG1        0.0124
@<TRIPOS>BOND
     1    13    14    1
     2    13    12    1
     3    14    10    1
     4    12    15    1
     5    12    11    1
     6    16    15   ar
     7    16    17   ar
     8    15    20   ar
     9    17    18   ar
    10    18    19   ar
    11    10    11    1
    12    10     7    1
    13    19    20   ar
    14     8     7    1
    15     8     9    1
    16     7     6    1
    17     9     4    1
    18     6     5    1
    19     4     5    1
    20     4     2   am
    21     1     2   am
    22     1    21    1
    23     2     3    2
    24    21    27   ar
    25    21    22   ar
    26    27    25   ar
    27    22    23   ar
    28    25    26    1
    29    25    24   ar
    30    23    24   ar
@<TRIPOS>MOLECULE
*****_MODEL4
 27 30 0 0 0
SMALL
GASTEIGER

@<TRIPOS>ATOM
      1  N         16.7420    7.2980   32.5430 N.am    1  LIG1       -0.1622
      2  C         18.0330    7.9190   32.6060 C.2     1  LIG1        0.3275
      3  O         18.9020    7.2890   33.2680 O.2     1  LIG1       -0.2504
      4  N         18.3700    8.9210   31.6400 N.am    1  LIG1       -0.2597
      5  C         19.7400    9.4320   31.7370 C.3     1  LIG1        0.1124
      6  C         20.5990    8.2070   31.4310 C.3     1  LIG1        0.0957
      7  N         20.3030    7.8650   30.0410 N.3     1  LIG1       -0.2470
      8  C         18.9480    7.7310   29.5590 C.3     1  LIG1        0.0957
      9  C         17.9650    8.6160   30.2690 C.3     1  LIG1        0.1124
     10  C         21.4110    8.0140   29.1420 C.3     1  LIG1        0.1997
     11  N         22.7230    8.1620   29.4550 N.3     1  LIG1       -0.1714
     12  C         23.5100    7.7440   28.4440 C.3     1  LIG1        0.1818
     13  N         23.1560    8.3490   27.2810 N.3     1  LIG1       -0.1386
     14  S         21.4700    8.4100   27.4730 S.3     1  LIG1       -0.0143
     15  C         24.8460    7.1640   28.6610 C.ar    1  LIG1        0.0109
     16  C         25.0380    5.7850   28.6570 C.ar    1  LIG1       -0.0015
     17  C         26.2310    5.1930   28.9750 C.ar    1  LIG1       -0.0002
     18  C         27.3110    6.0350   29.1820 C.ar    1  LIG1       -0.0000
     19  C         27.2100    7.3630   28.7840 C.ar    1  LIG1       -0.0002
     20  C         25.9960    7.8830   28.3500 C.ar    1  LIG1       -0.0015
     21  C         16.2120    6.7070   33.7350 C.ar    1  LIG1        0.0746
     22  C         16.8050    5.5210   34.1370 C.ar    1  LIG1        0.0166
     23  C         16.3380    4.7870   35.2180 C.ar    1  LIG1        0.0010
     24  C         15.0380    5.0440   35.6150 C.ar    1  LIG1       -0.0042
     25  C         14.2600    5.9790   34.9460 C.ar    1  LIG1       -0.0206
     26  C         12.8370    6.0900   35.3440 C.3     1  LIG1        0.0311
     27  C         14.8730    6.8540   34.0770 C.ar    1  LIG1        0.0124
@<TRIPOS>BOND
     1    13    14    1
     2    13    12    1
     3    14    10    1
     4    20    15   ar
     5    20    19   ar
     6    12    15    1
     7    12    11    1
     8    16    15   ar
     9    16    17   ar
    10    19    18   ar
    11    17    18   ar
    12    10    11    1
    13    10     7    1
    14     8     7    1
    15     8     9    1
    16     7     6    1
    17     9     4    1
    18     6     5    1
    19     4     5    1
    20     4     2   am
    21     1     2   am
    22     1    21    1
    23     2     3    2
    24    21    27   ar
    25    21    22   ar
    26    27    25   ar
    27    22    23   ar
    28    25    26    1
    29    25    24   ar
    30    23    24   ar
@<TRIPOS>MOLECULE
*****_MODEL5
 27 30 0 0 0
SMALL
GASTEIGER

@<TRIPOS>ATOM
      1  N         16.5290    7.3780   32.6310 N.am    1  LIG1       -0.1622
      2  C         17.8630    7.8980   32.6990 C.2     1  LIG1        0.3275
      3  O         18.6950    7.1720   33.3080 O.2     1  LIG1       -0.2504
      4  N         18.2570    8.9250   31.7800 N.am    1  LIG1       -0.2597
      5  C         19.6620    9.3280   31.8740 C.3     1  LIG1        0.1124
      6  C         20.4220    8.0630   31.4850 C.3     1  LIG1        0.0957
      7  N         20.0770    7.8190   30.0850 N.3     1  LIG1       -0.2470
      8  C         18.7070    7.8120   29.6270 C.3     1  LIG1        0.0957
      9  C         17.8050    8.7260   30.4040 C.3     1  LIG1        0.1124
     10  C         21.1760    7.9360   29.1720 C.3     1  LIG1        0.1997
     11  N         22.4840    8.1500   29.4640 N.3     1  LIG1       -0.1714
     12  C         23.2820    7.6820   28.4840 C.3     1  LIG1        0.1818
     13  N         22.9030    8.1860   27.2810 N.3     1  LIG1       -0.1386
     14  S         21.2170    8.2050   27.4770 S.3     1  LIG1       -0.0143
     15  C         24.6360    7.1650   28.7370 C.ar    1  LIG1        0.0109
     16  C         24.9160    5.8050   28.6290 C.ar    1  LIG1       -0.0015
     17  C         26.1230    5.2580   28.9710 C.ar    1  LIG1       -0.0002
     18  C         27.1330    6.1410   29.3180 C.ar    1  LIG1       -0.0000
     19  C         26.9710    7.4910   29.0290 C.ar    1  LIG1       -0.0002
     20  C         25.7540    7.9740   28.5630 C.ar    1  LIG1       -0.0015
     21  C         15.9780    6.7630   33.8010 C.ar    1  LIG1        0.0746
     22  C         16.5590    5.5650   34.1850 C.ar    1  LIG1        0.0166
     23  C         16.0720    4.8100   35.2420 C.ar    1  LIG1        0.0010
     24  C         14.7670    5.0640   35.6250 C.ar    1  LIG1       -0.0042
     25  C         14.0050    6.0190   34.9660 C.ar    1  LIG1       -0.0206
     26  C         12.5760    6.1290   35.3460 C.3     1  LIG1        0.0311
     27  C         14.6350    6.9100   34.1270 C.ar    1  LIG1        0.0124
@<TRIPOS>BOND
     1    13    14    1
     2    13    12    1
     3    14    10    1
     4    12    15    1
     5    12    11    1
     6    20    15   ar
     7    20    19   ar
     8    16    15   ar
     9    16    17   ar
    10    17    18   ar
    11    19    18   ar
    12    10    11    1
    13    10     7    1
    14     8     7    1
    15     8     9    1
    16     7     6    1
    17     9     4    1
    18     6     5    1
    19     4     5    1
    20     4     2   am
    21     1     2   am
    22     1    21    1
    23     2     3    2
    24    21    27   ar
    25    21    22   ar
    26    27    25   ar
    27    22    23   ar
    28    25    26    1
    29    25    24   ar
    30    23    24   ar
@<TRIPOS>MOLECULE
*****_MODEL6
 27 30 0 0 0
SMALL
GASTEIGER

@<TRIPOS>ATOM
      1  N         16.3120    7.6690   32.7810 N.am    1  LIG1       -0.1622
      2  C         17.7240    7.9070   32.8530 C.2     1  LIG1        0.3275
      3  O         18.4150    6.9350   33.2630 O.2     1  LIG1       -0.2504
      4  N         18.2830    8.9980   32.1130 N.am    1  LIG1       -0.2597
      5  C         19.7420    9.1060   32.1840 C.3     1  LIG1        0.1124
      6  C         20.2270    7.8190   31.5210 C.3     1  LIG1        0.0957
      7  N         19.7980    7.9170   30.1270 N.3     1  LIG1       -0.2470
      8  C         18.4400    8.2540   29.7670 C.3     1  LIG1        0.0957
      9  C         17.7600    9.1550   30.7570 C.3     1  LIG1        0.1124
     10  C         20.8700    7.9990   29.1780 C.3     1  LIG1        0.1997
     11  N         22.1830    8.2360   29.4230 N.3     1  LIG1       -0.1714
     12  C         22.9570    7.7280   28.4430 C.3     1  LIG1        0.1818
     13  N         22.5420    8.1720   27.2300 N.3     1  LIG1       -0.1386
     14  S         20.8610    8.1900   27.4720 S.3     1  LIG1       -0.0143
     15  C         24.3230    7.2330   28.6820 C.ar    1  LIG1        0.0109
     16  C         24.6450    5.8940   28.4780 C.ar    1  LIG1       -0.0015
     17  C         25.8630    5.3580   28.8000 C.ar    1  LIG1       -0.0002
     18  C         26.8400    6.2400   29.2300 C.ar    1  LIG1       -0.0000
     19  C         26.6420    7.6030   29.0400 C.ar    1  LIG1       -0.0002
     20  C         25.4190    8.0850   28.5890 C.ar    1  LIG1       -0.0015
     21  C         15.6870    6.9550   33.8540 C.ar    1  LIG1        0.0746
     22  C         16.2060    5.6990   34.1290 C.ar    1  LIG1        0.0166
     23  C         15.6440    4.8560   35.0760 C.ar    1  LIG1        0.0010
     24  C         14.3330    5.1220   35.4320 C.ar    1  LIG1       -0.0042
     25  C         13.6370    6.1730   34.8510 C.ar    1  LIG1       -0.0206
     26  C         12.1980    6.3000   35.1810 C.3     1  LIG1        0.0311
     27  C         14.3370    7.1210   34.1390 C.ar    1  LIG1        0.0124
@<TRIPOS>BOND
     1    13    14    1
     2    13    12    1
     3    14    10    1
     4    12    15    1
     5    12    11    1
     6    16    15   ar
     7    16    17   ar
     8    20    15   ar
     9    20    19   ar
    10    17    18   ar
    11    19    18   ar
    12    10    11    1
    13    10     7    1
    14     8     7    1
    15     8     9    1
    16     7     6    1
    17     9     4    1
    18     6     5    1
    19     4     5    1
    20     4     2   am
    21     1     2   am
    22     1    21    1
    23     2     3    2
    24    21    22   ar
    25    21    27   ar
    26    22    23   ar
    27    27    25   ar
    28    25    26    1
    29    25    24   ar
    30    23    24   ar
@<TRIPOS>MOLECULE
*****_MODEL7
 27 30 0 0 0
SMALL
GASTEIGER

@<TRIPOS>ATOM
      1  N         10.1410    8.7740   32.2520 N.am    1  LIG1       -0.1622
      2  C         10.5640    8.5260   33.5990 C.2     1  LIG1        0.3275
      3  O          9.8740    7.6840   34.2350 O.2     1  LIG1       -0.2504
      4  N         11.8930    8.8920   33.9890 N.am    1  LIG1       -0.2597
      5  C         12.2560    8.5210   35.3590 C.3     1  LIG1        0.1124
      6  C         12.1980    6.9950   35.3410 C.3     1  LIG1        0.0957
      7  N         13.2580    6.5790   34.4250 N.3     1  LIG1       -0.2470
      8  C         13.3940    7.1480   33.1050 C.3     1  LIG1        0.0957
      9  C         12.9320    8.5730   33.0110 C.3     1  LIG1        0.1124
     10  C         14.3260    5.8460   35.0440 C.3     1  LIG1        0.1997
     11  N         15.5320    5.5260   34.5140 N.3     1  LIG1       -0.1714
     12  C         16.4500    5.3340   35.4820 C.3     1  LIG1        0.1818
     13  N         16.0000    4.4350   36.3940 N.3     1  LIG1       -0.1386
     14  S         14.3530    4.8470   36.4390 S.3     1  LIG1       -0.0143
     15  C         17.8810    5.6240   35.2930 C.ar    1  LIG1        0.0109
     16  C         18.7820    4.6100   34.9760 C.ar    1  LIG1       -0.0015
     17  C         20.1360    4.8040   34.9100 C.ar    1  LIG1       -0.0002
     18  C         20.5880    6.1060   35.0450 C.ar    1  LIG1       -0.0000
     19  C         19.6720    7.1470   34.9480 C.ar    1  LIG1       -0.0002
     20  C         18.3070    6.8870   34.8930 C.ar    1  LIG1       -0.0015
     21  C          8.7380    8.8930   31.9900 C.ar    1  LIG1        0.0746
     22  C          8.0460    9.7830   32.7960 C.ar    1  LIG1        0.0166
     23  C          6.6690    9.9360   32.7200 C.ar    1  LIG1        0.0010
     24  C          5.9700    8.8980   32.1290 C.ar    1  LIG1       -0.0042
     25  C          6.6310    7.7720   31.6570 C.ar    1  LIG1       -0.0206
     26  C          5.7970    6.6480   31.1690 C.3     1  LIG1        0.0311
     27  C          8.0010    7.8160   31.5150 C.ar    1  LIG1        0.0124
@<TRIPOS>BOND
     1    26    25    1
     2    27    25   ar
     3    27    21   ar
     4    25    24   ar
     5    21     1    1
     6    21    22   ar
     7    24    23   ar
     8     1     2   am
     9    23    22   ar
    10     9     8    1
    11     9     4    1
    12     8     7    1
    13     2     4   am
    14     2     3    2
    15     4     5    1
    16     7    10    1
    17     7     6    1
    18    11    10    1
    19    11    12    1
    20    20    19   ar
    21    20    15   ar
    22    17    16   ar
    23    17    18   ar
    24    19    18   ar
    25    16    15   ar
    26    10    14    1
    27    15    12    1
    28     6     5    1
    29    12    13    1
    30    13    14    1
@<TRIPOS>MOLECULE
*****_MODEL8
 27 30 0 0 0
SMALL
GASTEIGER

@<TRIPOS>ATOM
      1  N         10.2190   11.3030   32.0670 N.am    1  LIG1       -0.1622
      2  C         11.5960   10.9380   32.2200 C.2     1  LIG1        0.3275
      3  O         12.2250   11.5680   33.1140 O.2     1  LIG1       -0.2504
      4  N         12.0470    9.6850   31.6930 N.am    1  LIG1       -0.2597
      5  C         13.4490    9.3670   31.9750 C.3     1  LIG1        0.1124
      6  C         13.4890    9.2540   33.4970 C.3     1  LIG1        0.0957
      7  N         12.6520    8.1000   33.8210 N.3     1  LIG1       -0.2470
      8  C         11.3200    7.9480   33.2840 C.3     1  LIG1        0.0957
      9  C         11.1430    8.5590   31.9250 C.3     1  LIG1        0.1124
     10  C         13.3590    6.9980   34.4070 C.3     1  LIG1        0.1997
     11  N         14.4240    6.3270   33.9000 N.3     1  LIG1       -0.1714
     12  C         15.1460    5.7530   34.8830 C.3     1  LIG1        0.1818
     13  N         14.3510    4.9910   35.6760 N.3     1  LIG1       -0.1386
     14  S         12.9410    5.9380   35.6900 S.3     1  LIG1       -0.0143
     15  C         16.6010    5.5500   34.7870 C.ar    1  LIG1        0.0109
     16  C         17.4890    6.5910   35.0430 C.ar    1  LIG1       -0.0015
     17  C         18.8410    6.4890   34.8500 C.ar    1  LIG1       -0.0002
     18  C         19.3300    5.2390   34.5060 C.ar    1  LIG1       -0.0000
     19  C         18.5030    4.1320   34.6560 C.ar    1  LIG1       -0.0002
     20  C         17.1600    4.2890   34.9760 C.ar    1  LIG1       -0.0015
     21  C          9.8720   12.6920   32.1160 C.ar    1  LIG1        0.0746
     22  C         10.8370   13.5720   31.6530 C.ar    1  LIG1        0.0166
     23  C         10.6810   14.9490   31.7240 C.ar    1  LIG1        0.0010
     24  C          9.7440   15.4120   32.6320 C.ar    1  LIG1       -0.0042
     25  C          9.0230   14.5290   33.4240 C.ar    1  LIG1       -0.0206
     26  C          8.1460   15.1110   34.4680 C.3     1  LIG1        0.0311
     27  C          9.0310   13.1890   33.1030 C.ar    1  LIG1        0.0124
@<TRIPOS>BOND
     1    22    23   ar
     2    22    21   ar
     3     4     9    1
     4     4     5    1
     5     4     2   am
     6    23    24   ar
     7     9     8    1
     8     5     6    1
     9     1    21    1
    10     1     2   am
    11    21    27   ar
    12     2     3    2
    13    24    25   ar
    14    27    25   ar
    15     8     7    1
    16    25    26    1
    17     6     7    1
    18     7    10    1
    19    11    10    1
    20    11    12    1
    21    10    14    1
    22    18    19   ar
    23    18    17   ar
    24    19    20   ar
    25    15    12    1
    26    15    20   ar
    27    15    16   ar
    28    17    16   ar
    29    12    13    1
    30    13    14    1
@<TRIPOS>MOLECULE
*****_MODEL9
 27 30 0 0 0
SMALL
GASTEIGER

@<TRIPOS>ATOM
      1  N         10.2930   13.8700   30.8010 N.am    1  LIG1       -0.1622
      2  C         11.3260   13.1730   31.5090 C.2     1  LIG1        0.3275
      3  O         11.4620   13.4970   32.7200 O.2     1  LIG1       -0.2504
      4  N         11.8260   11.9420   30.9750 N.am    1  LIG1       -0.2597
      5  C         12.8170   11.2650   31.8150 C.3     1  LIG1        0.1124
      6  C         12.0360   10.9200   33.0800 C.3     1  LIG1        0.0957
      7  N         11.0190    9.9600   32.6570 N.3     1  LIG1       -0.2470
      8  C         10.1610   10.2070   31.5210 C.3     1  LIG1        0.0957
      9  C         10.8040   11.0380   30.4490 C.3     1  LIG1        0.1124
     10  C         11.1680    8.6480   33.2170 C.3     1  LIG1        0.1997
     11  N         12.2410    7.8220   33.1290 N.3     1  LIG1       -0.1714
     12  C         12.2710    6.9560   34.1610 C.3     1  LIG1        0.1818
     13  N         11.0860    6.3010   34.2680 N.3     1  LIG1       -0.1386
     14  S         10.0120    7.5450   33.8440 S.3     1  LIG1       -0.0143
     15  C         13.5240    6.4260   34.7210 C.ar    1  LIG1        0.0109
     16  C         13.5170    5.6060   35.8470 C.ar    1  LIG1       -0.0015
     17  C         14.6570    5.1870   36.4770 C.ar    1  LIG1       -0.0002
     18  C         15.8610    5.5060   35.8690 C.ar    1  LIG1       -0.0000
     19  C         15.8480    5.9570   34.5550 C.ar    1  LIG1       -0.0002
     20  C         14.6480    6.2500   33.9180 C.ar    1  LIG1       -0.0015
     21  C         10.1480   15.2780   31.0190 C.ar    1  LIG1        0.0746
     22  C          9.1830   15.9130   30.2530 C.ar    1  LIG1        0.0166
     23  C          8.9930   17.2860   30.2890 C.ar    1  LIG1        0.0010
     24  C         10.0470   18.0370   30.7790 C.ar    1  LIG1       -0.0042
     25  C         11.2230   17.4270   31.1950 C.ar    1  LIG1       -0.0206
     26  C         12.3510   18.3120   31.5710 C.3     1  LIG1        0.0311
     27  C         11.2320   16.0640   31.3900 C.ar    1  LIG1        0.0124
@<TRIPOS>BOND
     1    22    23   ar
     2    22    21   ar
     3    23    24   ar
     4     9     4    1
     5     9     8    1
     6    24    25   ar
     7     1    21    1
     8     1     2   am
     9     4     2   am
    10     4     5    1
    11    21    27   ar
    12    25    27   ar
    13    25    26    1
    14     2     3    2
    15     8     7    1
    16     5     6    1
    17     7     6    1
    18     7    10    1
    19    11    10    1
    20    11    12    1
    21    10    14    1
    22    14    13    1
    23    20    19   ar
    24    20    15   ar
    25    12    13    1
    26    12    15    1
    27    19    18   ar
    28    15    16   ar
    29    16    17   ar
    30    18    17   ar
@<TRIPOS>MOLECULE
*****_MODEL10
 27 30 0 0 0
SMALL
GASTEIGER

@<TRIPOS>ATOM
      1  N         10.1830   13.9930   31.0610 N.am    1  LIG1       -0.1622
      2  C         11.2930   13.1770   31.4570 C.2     1  LIG1        0.3275
      3  O         11.8100   13.4730   32.5690 O.2     1  LIG1       -0.2504
      4  N         11.4760   11.9020   30.8320 N.am    1  LIG1       -0.2597
      5  C         12.5870   11.1100   31.3660 C.3     1  LIG1        0.1124
      6  C         12.1740   10.8450   32.8110 C.3     1  LIG1        0.0957
      7  N         10.9770   10.0100   32.7240 N.3     1  LIG1       -0.2470
      8  C          9.8600   10.3630   31.8790 C.3     1  LIG1        0.0957
      9  C         10.2520   11.1250   30.6470 C.3     1  LIG1        0.1124
     10  C         11.1350    8.6850   33.2490 C.3     1  LIG1        0.1997
     11  N         12.2150    7.8700   33.1420 N.3     1  LIG1       -0.1714
     12  C         12.2490    6.9770   34.1510 C.3     1  LIG1        0.1818
     13  N         11.0690    6.3100   34.2360 N.3     1  LIG1       -0.1386
     14  S          9.9860    7.5570   33.8430 S.3     1  LIG1       -0.0143
     15  C         13.5050    6.4420   34.7000 C.ar    1  LIG1        0.0109
     16  C         13.5020    5.6010   35.8100 C.ar    1  LIG1       -0.0015
     17  C         14.6450    5.1760   36.4320 C.ar    1  LIG1       -0.0002
     18  C         15.8460    5.5110   35.8290 C.ar    1  LIG1       -0.0000
     19  C         15.8300    5.9860   34.5230 C.ar    1  LIG1       -0.0002
     20  C         14.6280    6.2860   33.8930 C.ar    1  LIG1       -0.0015
     21  C         10.2660   15.4070   31.2780 C.ar    1  LIG1        0.0746
     22  C          9.2170   16.1580   30.7720 C.ar    1  LIG1        0.0166
     23  C          9.2040   17.5440   30.8240 C.ar    1  LIG1        0.0010
     24  C         10.4300   18.1600   31.0080 C.ar    1  LIG1       -0.0042
     25  C         11.5930   17.4110   31.1200 C.ar    1  LIG1       -0.0206
     26  C         12.8760   18.1520   31.1720 C.3     1  LIG1        0.0311
     27  C         11.4930   16.0550   31.3380 C.ar    1  LIG1        0.0124
@<TRIPOS>BOND
     1     9     4    1
     2     9     8    1
     3    22    23   ar
     4    22    21   ar
     5    23    24   ar
     6     4     5    1
     7     4     2   am
     8    24    25   ar
     9     1    21    1
    10     1     2   am
    11    25    26    1
    12    25    27   ar
    13    21    27   ar
    14     5     6    1
    15     2     3    2
    16     8     7    1
    17     7     6    1
    18     7    10    1
    19    11    10    1
    20    11    12    1
    21    10    14    1
    22    14    13    1
    23    20    19   ar
    24    20    15   ar
    25    12    13    1
    26    12    15    1
    27    19    18   ar
    28    15    16   ar
    29    16    17   ar
    30    18    17   ar
