MODEL 1
REMARK NAME *****_MODEL1
REMARK  3 active torsions:
REMARK  status: ('A' for Active; 'I' for Inactive)
REMARK    1  A    between atoms: C_4  and  N_8 
REMARK       I    between atoms: N_8  and  C_9 
REMARK    2  A    between atoms: C_9  and  C_11 
REMARK    3  A    between atoms: N_14  and  C_17 
ROOT
ATOM      1  C   LIG d   1      25.628 -10.543  17.893  0.00  0.00     0.085 C 
ATOM      2  C   LIG d   1      25.054 -10.172  19.295  0.00  0.00     0.034 C 
ATOM      3  C   LIG d   1      25.175  -8.649  19.545  0.00  0.00     0.120 C 
ATOM      4  N   LIG d   1      24.496  -7.926  18.485  0.00  0.00    -0.183 N 
ATOM      5  C   LIG d   1      25.010  -8.164  17.145  0.00  0.00     0.120 C 
ATOM      6  C   LIG d   1      24.939  -9.675  16.792  0.00  0.00     0.034 C 
ENDROOT
BRANCH   1   7
ATOM      7  C   LIG d   1      25.522 -12.011  17.642  0.00  0.00     0.255 C 
ATOM      8  N   LIG d   1      25.868 -12.672  16.497  0.00  0.00    -0.212 NA
ATOM      9  O   LIG d   1      25.052 -12.737  18.547  0.00  0.00    -0.270 OA
BRANCH   8  10
ATOM     10  C   LIG d   1      26.503 -12.185  15.396  0.00  0.00     0.084 A 
ATOM     11  C   LIG d   1      27.909 -12.174  15.271  0.00  0.00     0.015 A 
ATOM     12  C   LIG d   1      28.541 -11.613  14.139  0.00  0.00    -0.020 A 
ATOM     13  C   LIG d   1      30.016 -11.550  14.032  0.00  0.00     0.031 C 
ATOM     14  C   LIG d   1      27.734 -11.101  13.099  0.00  0.00    -0.004 A 
ATOM     15  C   LIG d   1      26.331 -11.169  13.181  0.00  0.00     0.001 A 
ATOM     16  C   LIG d   1      25.720 -11.712  14.324  0.00  0.00     0.019 A 
ENDBRANCH   8  10
ENDBRANCH   1   7
BRANCH   4  17
ATOM     17  C   LIG d   1      23.402  -7.107  18.736  0.00  0.00     0.727 A 
ATOM     18  N   LIG d   1      23.523  -5.961  19.467  0.00  0.00    -0.060 NA
ATOM     19  C   LIG d   1      22.477  -5.150  19.762  0.00  0.00     0.120 A 
ATOM     20  C   LIG d   1      21.194  -5.484  19.299  0.00  0.00     0.043 A 
ATOM     21  C   LIG d   1      21.057  -6.658  18.544  0.00  0.00     0.120 A 
ATOM     22  N   LIG d   1      22.151  -7.421  18.289  0.00  0.00    -0.060 NA
ENDBRANCH   4  17
TORSDOF 3
ENDMDL
MODEL 2
REMARK NAME *****_MODEL2
REMARK  3 active torsions:
REMARK  status: ('A' for Active; 'I' for Inactive)
REMARK    1  A    between atoms: C_4  and  N_8 
REMARK       I    between atoms: N_8  and  C_9 
REMARK    2  A    between atoms: C_9  and  C_11 
REMARK    3  A    between atoms: N_14  and  C_17 
ROOT
ATOM      1  C   LIG d   1      25.549 -10.463  17.844  0.00  0.00     0.085 C 
ATOM      2  C   LIG d   1      25.095 -10.082  19.286  0.00  0.00     0.034 C 
ATOM      3  C   LIG d   1      25.176  -8.549  19.493  0.00  0.00     0.120 C 
ATOM      4  N   LIG d   1      24.371  -7.878  18.488  0.00  0.00    -0.183 N 
ATOM      5  C   LIG d   1      24.766  -8.128  17.110  0.00  0.00     0.120 C 
ATOM      6  C   LIG d   1      24.724  -9.650  16.796  0.00  0.00     0.034 C 
ENDROOT
BRANCH   1   7
ATOM      7  C   LIG d   1      25.480 -11.940  17.633  0.00  0.00     0.255 C 
ATOM      8  N   LIG d   1      25.867 -12.626  16.516  0.00  0.00    -0.212 NA
ATOM      9  O   LIG d   1      25.004 -12.650  18.548  0.00  0.00    -0.270 OA
BRANCH   8  10
ATOM     10  C   LIG d   1      26.516 -12.156  15.417  0.00  0.00     0.084 A 
ATOM     11  C   LIG d   1      27.921 -12.203  15.285  0.00  0.00     0.015 A 
ATOM     12  C   LIG d   1      28.571 -11.660  14.154  0.00  0.00    -0.020 A 
ATOM     13  C   LIG d   1      30.047 -11.658  14.041  0.00  0.00     0.031 C 
ATOM     14  C   LIG d   1      27.781 -11.108  13.122  0.00  0.00    -0.004 A 
ATOM     15  C   LIG d   1      26.378 -11.118  13.210  0.00  0.00     0.001 A 
ATOM     16  C   LIG d   1      25.749 -11.644  14.352  0.00  0.00     0.019 A 
ENDBRANCH   8  10
ENDBRANCH   1   7
BRANCH   4  17
ATOM     17  C   LIG d   1      23.273  -7.097  18.825  0.00  0.00     0.727 A 
ATOM     18  N   LIG d   1      23.348  -6.147  19.801  0.00  0.00    -0.060 NA
ATOM     19  C   LIG d   1      22.293  -5.384  20.183  0.00  0.00     0.120 A 
ATOM     20  C   LIG d   1      21.051  -5.561  19.554  0.00  0.00     0.043 A 
ATOM     21  C   LIG d   1      20.961  -6.534  18.547  0.00  0.00     0.120 A 
ATOM     22  N   LIG d   1      22.061  -7.259  18.218  0.00  0.00    -0.060 NA
ENDBRANCH   4  17
TORSDOF 3
ENDMDL
MODEL 3
REMARK NAME *****_MODEL3
REMARK  3 active torsions:
REMARK  status: ('A' for Active; 'I' for Inactive)
REMARK    1  A    between atoms: C_4  and  N_8 
REMARK       I    between atoms: N_8  and  C_9 
REMARK    2  A    between atoms: C_9  and  C_11 
REMARK    3  A    between atoms: N_14  and  C_17 
ROOT
ATOM      1  C   LIG d   1      25.653 -10.769  17.808  0.00  0.00     0.085 C 
ATOM      2  C   LIG d   1      25.036 -10.430  19.200  0.00  0.00     0.034 C 
ATOM      3  C   LIG d   1      25.191  -8.921  19.509  0.00  0.00     0.120 C 
ATOM      4  N   LIG d   1      24.573  -8.141  18.451  0.00  0.00    -0.183 N 
ATOM      5  C   LIG d   1      25.131  -8.347  17.123  0.00  0.00     0.120 C 
ATOM      6  C   LIG d   1      25.031  -9.843  16.714  0.00  0.00     0.034 C 
ENDROOT
BRANCH   1   7
ATOM      7  C   LIG d   1      25.514 -12.223  17.500  0.00  0.00     0.255 C 
ATOM      8  N   LIG d   1      25.991 -12.875  16.397  0.00  0.00    -0.212 NA
ATOM      9  O   LIG d   1      24.884 -12.945  18.306  0.00  0.00    -0.270 OA
BRANCH   8  10
ATOM     10  C   LIG d   1      26.800 -12.395  15.414  0.00  0.00     0.084 A 
ATOM     11  C   LIG d   1      26.308 -11.988  14.155  0.00  0.00     0.015 A 
ATOM     12  C   LIG d   1      27.180 -11.543  13.136  0.00  0.00    -0.020 A 
ATOM     13  C   LIG d   1      26.671 -11.169  11.796  0.00  0.00     0.031 C 
ATOM     14  C   LIG d   1      28.562 -11.464  13.415  0.00  0.00    -0.004 A 
ATOM     15  C   LIG d   1      29.056 -11.802  14.688  0.00  0.00     0.001 A 
ATOM     16  C   LIG d   1      28.177 -12.262  15.683  0.00  0.00     0.019 A 
ENDBRANCH   8  10
ENDBRANCH   1   7
BRANCH   4  17
ATOM     17  C   LIG d   1      23.495  -7.299  18.691  0.00  0.00     0.727 A 
ATOM     18  N   LIG d   1      23.658  -6.086  19.294  0.00  0.00    -0.060 NA
ATOM     19  C   LIG d   1      22.629  -5.247  19.575  0.00  0.00     0.120 A 
ATOM     20  C   LIG d   1      21.321  -5.624  19.233  0.00  0.00     0.043 A 
ATOM     21  C   LIG d   1      21.140  -6.867  18.610  0.00  0.00     0.120 A 
ATOM     22  N   LIG d   1      22.218  -7.653  18.361  0.00  0.00    -0.060 NA
ENDBRANCH   4  17
TORSDOF 3
ENDMDL
MODEL 4
REMARK NAME *****_MODEL4
REMARK  3 active torsions:
REMARK  status: ('A' for Active; 'I' for Inactive)
REMARK    1  A    between atoms: C_4  and  N_8 
REMARK       I    between atoms: N_8  and  C_9 
REMARK    2  A    between atoms: C_9  and  C_11 
REMARK    3  A    between atoms: N_14  and  C_17 
ROOT
ATOM      1  C   LIG d   1      25.637 -10.759  17.630  0.00  0.00     0.085 C 
ATOM      2  C   LIG d   1      25.095 -10.428  19.054  0.00  0.00     0.034 C 
ATOM      3  C   LIG d   1      25.256  -8.918  19.359  0.00  0.00     0.120 C 
ATOM      4  N   LIG d   1      24.577  -8.140  18.338  0.00  0.00    -0.183 N 
ATOM      5  C   LIG d   1      25.063  -8.340  16.981  0.00  0.00     0.120 C 
ATOM      6  C   LIG d   1      24.951  -9.835  16.574  0.00  0.00     0.034 C 
ENDROOT
BRANCH   1   7
ATOM      7  C   LIG d   1      25.491 -12.214  17.327  0.00  0.00     0.255 C 
ATOM      8  N   LIG d   1      25.982 -12.875  16.235  0.00  0.00    -0.212 NA
ATOM      9  O   LIG d   1      24.841 -12.926  18.125  0.00  0.00    -0.270 OA
BRANCH   8  10
ATOM     10  C   LIG d   1      26.812 -12.407  15.265  0.00  0.00     0.084 A 
ATOM     11  C   LIG d   1      26.344 -11.986  14.001  0.00  0.00     0.015 A 
ATOM     12  C   LIG d   1      27.237 -11.554  12.994  0.00  0.00    -0.020 A 
ATOM     13  C   LIG d   1      26.752 -11.166  11.650  0.00  0.00     0.031 C 
ATOM     14  C   LIG d   1      28.616 -11.502  13.291  0.00  0.00    -0.004 A 
ATOM     15  C   LIG d   1      29.087 -11.853  14.569  0.00  0.00     0.001 A 
ATOM     16  C   LIG d   1      28.187 -12.299  15.552  0.00  0.00     0.019 A 
ENDBRANCH   8  10
ENDBRANCH   1   7
BRANCH   4  17
ATOM     17  C   LIG d   1      23.508  -7.306  18.638  0.00  0.00     0.727 A 
ATOM     18  N   LIG d   1      23.682  -6.148  19.339  0.00  0.00    -0.060 NA
ATOM     19  C   LIG d   1      22.663  -5.321  19.680  0.00  0.00     0.120 A 
ATOM     20  C   LIG d   1      21.352  -5.651  19.301  0.00  0.00     0.043 A 
ATOM     21  C   LIG d   1      21.159  -6.837  18.578  0.00  0.00     0.120 A 
ATOM     22  N   LIG d   1      22.230  -7.615  18.272  0.00  0.00    -0.060 NA
ENDBRANCH   4  17
TORSDOF 3
ENDMDL
MODEL 5
REMARK NAME *****_MODEL5
REMARK  3 active torsions:
REMARK  status: ('A' for Active; 'I' for Inactive)
REMARK    1  A    between atoms: C_4  and  N_8 
REMARK       I    between atoms: N_8  and  C_9 
REMARK    2  A    between atoms: C_9  and  C_11 
REMARK    3  A    between atoms: N_14  and  C_17 
ROOT
ATOM      1  C   LIG d   1      25.564 -10.761  17.783  0.00  0.00     0.085 C 
ATOM      2  C   LIG d   1      25.015 -10.431  19.205  0.00  0.00     0.034 C 
ATOM      3  C   LIG d   1      25.181  -8.922  19.514  0.00  0.00     0.120 C 
ATOM      4  N   LIG d   1      24.510  -8.139  18.492  0.00  0.00    -0.183 N 
ATOM      5  C   LIG d   1      25.003  -8.337  17.137  0.00  0.00     0.120 C 
ATOM      6  C   LIG d   1      24.887  -9.831  16.726  0.00  0.00     0.034 C 
ENDROOT
BRANCH   1   7
ATOM      7  C   LIG d   1      25.414 -12.214  17.475  0.00  0.00     0.255 C 
ATOM      8  N   LIG d   1      25.902 -12.872  16.381  0.00  0.00    -0.212 NA
ATOM      9  O   LIG d   1      24.763 -12.927  18.272  0.00  0.00    -0.270 OA
BRANCH   8  10
ATOM     10  C   LIG d   1      26.732 -12.403  15.411  0.00  0.00     0.084 A 
ATOM     11  C   LIG d   1      26.264 -11.987  14.145  0.00  0.00     0.015 A 
ATOM     12  C   LIG d   1      27.157 -11.554  13.139  0.00  0.00    -0.020 A 
ATOM     13  C   LIG d   1      26.672 -11.171  11.793  0.00  0.00     0.031 C 
ATOM     14  C   LIG d   1      28.535 -11.495  13.438  0.00  0.00    -0.004 A 
ATOM     15  C   LIG d   1      29.006 -11.841  14.718  0.00  0.00     0.001 A 
ATOM     16  C   LIG d   1      28.106 -12.289  15.700  0.00  0.00     0.019 A 
ENDBRANCH   8  10
ENDBRANCH   1   7
BRANCH   4  17
ATOM     17  C   LIG d   1      23.442  -7.302  18.788  0.00  0.00     0.727 A 
ATOM     18  N   LIG d   1      22.179  -7.578  18.351  0.00  0.00    -0.060 NA
ATOM     19  C   LIG d   1      21.114  -6.773  18.590  0.00  0.00     0.120 A 
ATOM     20  C   LIG d   1      21.295  -5.590  19.325  0.00  0.00     0.043 A 
ATOM     21  C   LIG d   1      22.588  -5.296  19.782  0.00  0.00     0.120 A 
ATOM     22  N   LIG d   1      23.606  -6.151  19.503  0.00  0.00    -0.060 NA
ENDBRANCH   4  17
TORSDOF 3
ENDMDL
MODEL 6
REMARK NAME *****_MODEL6
REMARK  3 active torsions:
REMARK  status: ('A' for Active; 'I' for Inactive)
REMARK    1  A    between atoms: C_4  and  N_8 
REMARK       I    between atoms: N_8  and  C_9 
REMARK    2  A    between atoms: C_9  and  C_11 
REMARK    3  A    between atoms: N_14  and  C_17 
ROOT
ATOM      1  C   LIG d   1      24.840  -9.125  15.319  0.00  0.00     0.085 C 
ATOM      2  C   LIG d   1      24.249  -9.714  16.636  0.00  0.00     0.034 C 
ATOM      3  C   LIG d   1      24.651  -8.841  17.850  0.00  0.00     0.120 C 
ATOM      4  N   LIG d   1      24.210  -7.474  17.635  0.00  0.00    -0.183 N 
ATOM      5  C   LIG d   1      24.764  -6.823  16.458  0.00  0.00     0.120 C 
ATOM      6  C   LIG d   1      24.420  -7.627  15.173  0.00  0.00     0.034 C 
ENDROOT
BRANCH   1   7
ATOM      7  C   LIG d   1      24.462  -9.962  14.141  0.00  0.00     0.255 C 
ATOM      8  N   LIG d   1      25.282 -10.799  13.436  0.00  0.00    -0.212 NA
ATOM      9  O   LIG d   1      23.286  -9.899  13.718  0.00  0.00    -0.270 OA
BRANCH   8  10
ATOM     10  C   LIG d   1      26.563 -11.163  13.715  0.00  0.00     0.084 A 
ATOM     11  C   LIG d   1      27.632 -10.928  12.823  0.00  0.00     0.015 A 
ATOM     12  C   LIG d   1      28.943 -11.364  13.119  0.00  0.00    -0.020 A 
ATOM     13  C   LIG d   1      30.054 -11.168  12.159  0.00  0.00     0.031 C 
ATOM     14  C   LIG d   1      29.181 -12.002  14.356  0.00  0.00    -0.004 A 
ATOM     15  C   LIG d   1      28.137 -12.180  15.282  0.00  0.00     0.001 A 
ATOM     16  C   LIG d   1      26.835 -11.758  14.963  0.00  0.00     0.019 A 
ENDBRANCH   8  10
ENDBRANCH   1   7
BRANCH   4  17
ATOM     17  C   LIG d   1      23.285  -6.859  18.469  0.00  0.00     0.727 A 
ATOM     18  N   LIG d   1      21.997  -7.302  18.553  0.00  0.00    -0.060 NA
ATOM     19  C   LIG d   1      21.054  -6.712  19.330  0.00  0.00     0.120 A 
ATOM     20  C   LIG d   1      21.398  -5.589  20.098  0.00  0.00     0.043 A 
ATOM     21  C   LIG d   1      22.720  -5.125  20.022  0.00  0.00     0.120 A 
ATOM     22  N   LIG d   1      23.609  -5.768  19.222  0.00  0.00    -0.060 NA
ENDBRANCH   4  17
TORSDOF 3
ENDMDL
MODEL 7
REMARK NAME *****_MODEL7
REMARK  3 active torsions:
REMARK  status: ('A' for Active; 'I' for Inactive)
REMARK    1  A    between atoms: C_4  and  N_8 
REMARK       I    between atoms: N_8  and  C_9 
REMARK    2  A    between atoms: C_9  and  C_11 
REMARK    3  A    between atoms: N_14  and  C_17 
ROOT
ATOM      1  C   LIG d   1      24.720  -8.990  15.381  0.00  0.00     0.085 C 
ATOM      2  C   LIG d   1      24.050  -9.575  16.662  0.00  0.00     0.034 C 
ATOM      3  C   LIG d   1      24.483  -8.776  17.915  0.00  0.00     0.120 C 
ATOM      4  N   LIG d   1      24.153  -7.374  17.737  0.00  0.00    -0.183 N 
ATOM      5  C   LIG d   1      24.787  -6.727  16.598  0.00  0.00     0.120 C 
ATOM      6  C   LIG d   1      24.420  -7.460  15.278  0.00  0.00     0.034 C 
ENDROOT
BRANCH   1   7
ATOM      7  C   LIG d   1      24.313  -9.756  14.166  0.00  0.00     0.255 C 
ATOM      8  N   LIG d   1      25.098 -10.600  13.431  0.00  0.00    -0.212 NA
ATOM      9  O   LIG d   1      23.146  -9.617  13.737  0.00  0.00    -0.270 OA
BRANCH   8  10
ATOM     10  C   LIG d   1      26.357 -11.039  13.704  0.00  0.00     0.084 A 
ATOM     11  C   LIG d   1      27.444 -10.820  12.830  0.00  0.00     0.015 A 
ATOM     12  C   LIG d   1      28.730 -11.333  13.115  0.00  0.00    -0.020 A 
ATOM     13  C   LIG d   1      29.858 -11.152  12.173  0.00  0.00     0.031 C 
ATOM     14  C   LIG d   1      28.924 -12.033  14.326  0.00  0.00    -0.004 A 
ATOM     15  C   LIG d   1      27.865 -12.198  15.236  0.00  0.00     0.001 A 
ATOM     16  C   LIG d   1      26.588 -11.698  14.927  0.00  0.00     0.019 A 
ENDBRANCH   8  10
ENDBRANCH   1   7
BRANCH   4  17
ATOM     17  C   LIG d   1      23.254  -6.717  18.569  0.00  0.00     0.727 A 
ATOM     18  N   LIG d   1      21.974  -7.162  18.726  0.00  0.00    -0.060 NA
ATOM     19  C   LIG d   1      21.055  -6.535  19.503  0.00  0.00     0.120 A 
ATOM     20  C   LIG d   1      21.418  -5.367  20.192  0.00  0.00     0.043 A 
ATOM     21  C   LIG d   1      22.732  -4.901  20.041  0.00  0.00     0.120 A 
ATOM     22  N   LIG d   1      23.597  -5.582  19.246  0.00  0.00    -0.060 NA
ENDBRANCH   4  17
TORSDOF 3
ENDMDL
MODEL 8
REMARK NAME *****_MODEL8
REMARK  3 active torsions:
REMARK  status: ('A' for Active; 'I' for Inactive)
REMARK    1  A    between atoms: C_4  and  N_8 
REMARK       I    between atoms: N_8  and  C_9 
REMARK    2  A    between atoms: C_9  and  C_11 
REMARK    3  A    between atoms: N_14  and  C_17 
ROOT
ATOM      1  C   LIG d   1      24.832  -9.158  15.272  0.00  0.00     0.085 C 
ATOM      2  C   LIG d   1      24.319  -9.765  16.614  0.00  0.00     0.034 C 
ATOM      3  C   LIG d   1      24.717  -8.861  17.807  0.00  0.00     0.120 C 
ATOM      4  N   LIG d   1      24.198  -7.521  17.597  0.00  0.00    -0.183 N 
ATOM      5  C   LIG d   1      24.676  -6.852  16.397  0.00  0.00     0.120 C 
ATOM      6  C   LIG d   1      24.331  -7.685  15.131  0.00  0.00     0.034 C 
ENDROOT
BRANCH   1   7
ATOM      7  C   LIG d   1      24.459 -10.024  14.115  0.00  0.00     0.255 C 
ATOM      8  N   LIG d   1      25.284 -10.868  13.426  0.00  0.00    -0.212 NA
ATOM      9  O   LIG d   1      23.281  -9.980  13.695  0.00  0.00    -0.270 OA
BRANCH   8  10
ATOM     10  C   LIG d   1      26.569 -11.214  13.709  0.00  0.00     0.084 A 
ATOM     11  C   LIG d   1      27.639 -10.958  12.823  0.00  0.00     0.015 A 
ATOM     12  C   LIG d   1      28.955 -11.377  13.122  0.00  0.00    -0.020 A 
ATOM     13  C   LIG d   1      30.067 -11.159  12.169  0.00  0.00     0.031 C 
ATOM     14  C   LIG d   1      29.196 -12.019  14.356  0.00  0.00    -0.004 A 
ATOM     15  C   LIG d   1      28.151 -12.218  15.276  0.00  0.00     0.001 A 
ATOM     16  C   LIG d   1      26.845 -11.813  14.954  0.00  0.00     0.019 A 
ENDBRANCH   8  10
ENDBRANCH   1   7
BRANCH   4  17
ATOM     17  C   LIG d   1      23.271  -6.947  18.459  0.00  0.00     0.727 A 
ATOM     18  N   LIG d   1      21.997  -7.426  18.555  0.00  0.00    -0.060 NA
ATOM     19  C   LIG d   1      21.052  -6.877  19.359  0.00  0.00     0.120 A 
ATOM     20  C   LIG d   1      21.380  -5.761  20.145  0.00  0.00     0.043 A 
ATOM     21  C   LIG d   1      22.687  -5.261  20.056  0.00  0.00     0.120 A 
ATOM     22  N   LIG d   1      23.579  -5.863  19.229  0.00  0.00    -0.060 NA
ENDBRANCH   4  17
TORSDOF 3
ENDMDL
MODEL 9
REMARK NAME *****_MODEL9
REMARK  3 active torsions:
REMARK  status: ('A' for Active; 'I' for Inactive)
REMARK    1  A    between atoms: C_4  and  N_8 
REMARK       I    between atoms: N_8  and  C_9 
REMARK    2  A    between atoms: C_9  and  C_11 
REMARK    3  A    between atoms: N_14  and  C_17 
ROOT
ATOM      1  C   LIG d   1      24.833 -11.087  17.481  0.00  0.00     0.085 C 
ATOM      2  C   LIG d   1      25.351 -12.379  16.778  0.00  0.00     0.034 C 
ATOM      3  C   LIG d   1      25.373 -12.189  15.241  0.00  0.00     0.120 C 
ATOM      4  N   LIG d   1      26.190 -11.038  14.904  0.00  0.00    -0.183 N 
ATOM      5  C   LIG d   1      25.740  -9.773  15.467  0.00  0.00     0.120 C 
ATOM      6  C   LIG d   1      25.677  -9.856  17.017  0.00  0.00     0.034 C 
ENDROOT
BRANCH   1   7
ATOM      7  C   LIG d   1      24.802 -11.259  18.964  0.00  0.00     0.255 C 
ATOM      8  N   LIG d   1      24.158 -12.243  19.660  0.00  0.00    -0.212 NA
ATOM      9  O   LIG d   1      25.402 -10.419  19.673  0.00  0.00    -0.270 OA
BRANCH   8  10
ATOM     10  C   LIG d   1      23.526 -13.347  19.177  0.00  0.00     0.084 A 
ATOM     11  C   LIG d   1      24.055 -14.649  19.319  0.00  0.00     0.015 A 
ATOM     12  C   LIG d   1      23.401 -15.771  18.761  0.00  0.00    -0.020 A 
ATOM     13  C   LIG d   1      23.983 -17.129  18.861  0.00  0.00     0.031 C 
ATOM     14  C   LIG d   1      22.172 -15.574  18.094  0.00  0.00    -0.004 A 
ATOM     15  C   LIG d   1      21.602 -14.292  18.006  0.00  0.00     0.001 A 
ATOM     16  C   LIG d   1      22.276 -13.185  18.549  0.00  0.00     0.019 A 
ENDBRANCH   8  10
ENDBRANCH   1   7
BRANCH   4  17
ATOM     17  C   LIG d   1      27.344 -11.152  14.140  0.00  0.00     0.727 A 
ATOM     18  N   LIG d   1      27.289 -11.418  12.802  0.00  0.00    -0.060 NA
ATOM     19  C   LIG d   1      28.391 -11.568  12.025  0.00  0.00     0.120 A 
ATOM     20  C   LIG d   1      29.664 -11.445  12.604  0.00  0.00     0.043 A 
ATOM     21  C   LIG d   1      29.734 -11.169  13.978  0.00  0.00     0.120 A 
ATOM     22  N   LIG d   1      28.587 -11.031  14.691  0.00  0.00    -0.060 NA
ENDBRANCH   4  17
TORSDOF 3
ENDMDL
MODEL 10
REMARK NAME *****_MODEL10
REMARK  3 active torsions:
REMARK  status: ('A' for Active; 'I' for Inactive)
REMARK    1  A    between atoms: C_4  and  N_8 
REMARK       I    between atoms: N_8  and  C_9 
REMARK    2  A    between atoms: C_9  and  C_11 
REMARK    3  A    between atoms: N_14  and  C_17 
ROOT
ATOM      1  C   LIG d   1      25.471 -12.820  16.544  0.00  0.00     0.085 C 
ATOM      2  C   LIG d   1      25.034 -12.091  17.851  0.00  0.00     0.034 C 
ATOM      3  C   LIG d   1      23.719 -12.700  18.398  0.00  0.00     0.120 C 
ATOM      4  N   LIG d   1      23.895 -14.124  18.618  0.00  0.00    -0.183 N 
ATOM      5  C   LIG d   1      24.244 -14.895  17.435  0.00  0.00     0.120 C 
ATOM      6  C   LIG d   1      25.557 -14.359  16.798  0.00  0.00     0.034 C 
ENDROOT
BRANCH   1   7
ATOM      7  C   LIG d   1      26.736 -12.239  16.004  0.00  0.00     0.255 C 
ATOM      8  N   LIG d   1      26.923 -10.961  15.555  0.00  0.00    -0.212 NA
ATOM      9  O   LIG d   1      27.743 -12.978  15.920  0.00  0.00    -0.270 OA
BRANCH   8  10
ATOM     10  C   LIG d   1      26.066  -9.907  15.622  0.00  0.00     0.084 A 
ATOM     11  C   LIG d   1      24.931  -9.796  14.789  0.00  0.00     0.015 A 
ATOM     12  C   LIG d   1      24.088  -8.663  14.844  0.00  0.00    -0.020 A 
ATOM     13  C   LIG d   1      22.930  -8.520  13.933  0.00  0.00     0.031 C 
ATOM     14  C   LIG d   1      24.372  -7.655  15.792  0.00  0.00    -0.004 A 
ATOM     15  C   LIG d   1      25.459  -7.787  16.673  0.00  0.00     0.001 A 
ATOM     16  C   LIG d   1      26.299  -8.911  16.590  0.00  0.00     0.019 A 
ENDBRANCH   8  10
ENDBRANCH   1   7
BRANCH   4  17
ATOM     17  C   LIG d   1      23.788 -14.693  19.881  0.00  0.00     0.727 A 
ATOM     18  N   LIG d   1      22.699 -14.469  20.673  0.00  0.00    -0.060 NA
ATOM     19  C   LIG d   1      22.568 -14.978  21.923  0.00  0.00     0.120 A 
ATOM     20  C   LIG d   1      23.590 -15.783  22.450  0.00  0.00     0.043 A 
ATOM     21  C   LIG d   1      24.714 -16.023  21.645  0.00  0.00     0.120 A 
ATOM     22  N   LIG d   1      24.775 -15.478  20.402  0.00  0.00    -0.060 NA
ENDBRANCH   4  17
TORSDOF 3
ENDMDL
