@<TRIPOS>MOLECULE
*****_MODEL1
 28 31 0 0 0
SMALL
GASTEIGER

@<TRIPOS>ATOM
      1  N         25.6440  -10.1720   15.3870 N.am    1  LIG1       -0.1621
      2  C         26.5950   -9.5990   16.2920 C.2     1  LIG1        0.3275
      3  O         27.8010   -9.4810   15.9230 O.2     1  LIG1       -0.2504
      4  N         26.1150   -8.5990   17.1980 N.am    1  LIG1       -0.2597
      5  C         25.9000   -7.2760   16.6180 C.3     1  LIG1        0.1124
      6  C         24.9830   -6.5100   17.5370 C.3     1  LIG1        0.0957
      7  N         23.7400   -7.2500   17.7480 N.3     1  LIG1       -0.2470
      8  C         23.8890   -8.6220   18.2250 C.3     1  LIG1        0.0957
      9  C         25.3300   -9.0300   18.3510 C.3     1  LIG1        0.1124
     10  C         26.1340  -11.1240   14.4360 C.ar    1  LIG1        0.0779
     11  C         25.8820  -10.8170   13.1060 C.ar    1  LIG1        0.0169
     12  C         26.7170  -11.2130   12.0840 C.ar    1  LIG1        0.0044
     13  C         27.8790  -11.8740   12.4080 C.ar    1  LIG1        0.0370
     14  C         28.1140  -12.2970   13.7110 C.ar    1  LIG1        0.1400
     15  C         27.3560  -11.7200   14.7170 C.ar    1  LIG1        0.0535
     16  O         29.4300  -12.6630   13.9950 O.3     1  LIG1       -0.4714
     17  C         30.4230  -11.6400   14.0060 C.3     1  LIG1        0.2525
     18  C         22.6870   -6.5170   18.3860 C.3     1  LIG1        0.1997
     19  N         22.7020   -5.2390   18.8370 N.3     1  LIG1       -0.1714
     20  C         21.9180   -5.0870   19.9090 C.3     1  LIG1        0.1818
     21  N         20.6740   -5.5820   19.6850 N.3     1  LIG1       -0.1386
     22  S         21.0460   -6.9100   18.6950 S.3     1  LIG1       -0.0143
     23  C         22.1530   -4.0940   20.9690 C.ar    1  LIG1        0.0109
     24  C         23.4080   -3.5110   21.0740 C.ar    1  LIG1       -0.0015
     25  C         23.6720   -2.7960   22.2360 C.ar    1  LIG1       -0.0002
     26  C         22.9120   -2.9380   23.3780 C.ar    1  LIG1       -0.0000
     27  C         21.8630   -3.8350   23.3660 C.ar    1  LIG1       -0.0002
     28  C         21.4640   -4.3310   22.1530 C.ar    1  LIG1       -0.0015
@<TRIPOS>BOND
     1    12    13   ar
     2    12    11   ar
     3    13    14   ar
     4    11    10   ar
     5    14    16    1
     6    14    15   ar
     7    16    17    1
     8    10    15   ar
     9    10     1    1
    10     1     2   am
    11     3     2    2
    12     2     4   am
    13     5     4    1
    14     5     6    1
    15     4     9    1
    16     6     7    1
    17     7     8    1
    18     7    18    1
    19     8     9    1
    20    18    22    1
    21    18    19    1
    22    22    21    1
    23    19    20    1
    24    21    20    1
    25    20    23    1
    26    23    24   ar
    27    23    28   ar
    28    24    25   ar
    29    28    27   ar
    30    25    26   ar
    31    27    26   ar
@<TRIPOS>MOLECULE
*****_MODEL2
 28 31 0 0 0
SMALL
GASTEIGER

@<TRIPOS>ATOM
      1  N         25.4010  -10.1200   15.5660 N.am    1  LIG1       -0.1621
      2  C         26.4010   -9.5020   16.3850 C.2     1  LIG1        0.3275
      3  O         27.5720   -9.3600   15.9240 O.2     1  LIG1       -0.2504
      4  N         25.9620   -8.4960   17.3050 N.am    1  LIG1       -0.2597
      5  C         25.6660   -7.1920   16.7170 C.3     1  LIG1        0.1124
      6  C         24.7990   -6.4320   17.6880 C.3     1  LIG1        0.0957
      7  N         23.5970   -7.2000   18.0070 N.3     1  LIG1       -0.2470
      8  C         23.8210   -8.5570   18.4970 C.3     1  LIG1        0.0957
      9  C         25.2780   -8.9230   18.5220 C.3     1  LIG1        0.1124
     10  C         25.8460  -11.0790   14.5990 C.ar    1  LIG1        0.0779
     11  C         25.5780  -10.7540   13.2760 C.ar    1  LIG1        0.0169
     12  C         26.3830  -11.1670   12.2370 C.ar    1  LIG1        0.0044
     13  C         27.5310  -11.8640   12.5340 C.ar    1  LIG1        0.0370
     14  C         27.7770  -12.3040   13.8290 C.ar    1  LIG1        0.1400
     15  C         27.0550  -11.7120   14.8530 C.ar    1  LIG1        0.0535
     16  O         29.0860  -12.7090   14.0860 O.3     1  LIG1       -0.4714
     17  C         30.1150  -11.7230   14.0470 C.3     1  LIG1        0.2525
     18  C         22.5740   -6.4820   18.7080 C.3     1  LIG1        0.1997
     19  N         22.5140   -5.1570   18.9870 N.3     1  LIG1       -0.1714
     20  C         21.8840   -4.9270   20.1430 C.3     1  LIG1        0.1818
     21  N         20.6830   -5.5580   20.1850 N.3     1  LIG1       -0.1386
     22  S         21.0500   -6.9730   19.3220 S.3     1  LIG1       -0.0143
     23  C         22.1600   -3.7780   21.0190 C.ar    1  LIG1        0.0109
     24  C         22.1220   -3.9600   22.3950 C.ar    1  LIG1       -0.0015
     25  C         22.1150   -2.8140   23.1800 C.ar    1  LIG1       -0.0002
     26  C         21.7990   -1.5720   22.6690 C.ar    1  LIG1       -0.0000
     27  C         21.4610   -1.4730   21.3340 C.ar    1  LIG1       -0.0002
     28  C         21.7210   -2.5520   20.5310 C.ar    1  LIG1       -0.0015
@<TRIPOS>BOND
     1    12    13   ar
     2    12    11   ar
     3    13    14   ar
     4    11    10   ar
     5    14    16    1
     6    14    15   ar
     7    17    16    1
     8    10    15   ar
     9    10     1    1
    10     1     2   am
    11     3     2    2
    12     2     4   am
    13     5     4    1
    14     5     6    1
    15     4     9    1
    16     6     7    1
    17     7     8    1
    18     7    18    1
    19     8     9    1
    20    18    19    1
    21    18    22    1
    22    19    20    1
    23    22    21    1
    24    20    21    1
    25    20    23    1
    26    28    23   ar
    27    28    27   ar
    28    23    24   ar
    29    27    26   ar
    30    24    25   ar
    31    26    25   ar
@<TRIPOS>MOLECULE
*****_MODEL3
 28 31 0 0 0
SMALL
GASTEIGER

@<TRIPOS>ATOM
      1  N         25.4100  -10.2100   15.4410 N.am    1  LIG1       -0.1621
      2  C         26.3960   -9.6710   16.3300 C.2     1  LIG1        0.3275
      3  O         27.5910   -9.5590   15.9270 O.2     1  LIG1       -0.2504
      4  N         25.9570   -8.6880   17.2750 N.am    1  LIG1       -0.2597
      5  C         25.7410   -7.3490   16.7340 C.3     1  LIG1        0.1124
      6  C         24.8620   -6.5950   17.7000 C.3     1  LIG1        0.0957
      7  N         23.6170   -7.3250   17.9320 N.3     1  LIG1       -0.2470
      8  C         23.7630   -8.7100   18.3700 C.3     1  LIG1        0.0957
      9  C         25.2020   -9.1390   18.4400 C.3     1  LIG1        0.1124
     10  C         25.8580  -11.1440   14.4530 C.ar    1  LIG1        0.0779
     11  C         25.5900  -10.7890   13.1370 C.ar    1  LIG1        0.0169
     12  C         26.3970  -11.1740   12.0890 C.ar    1  LIG1        0.0044
     13  C         27.5470  -11.8740   12.3700 C.ar    1  LIG1        0.0370
     14  C         27.7940  -12.3440   13.6550 C.ar    1  LIG1        0.1400
     15  C         27.0700  -11.7790   14.6920 C.ar    1  LIG1        0.0535
     16  O         29.1050  -12.7510   13.9030 O.3     1  LIG1       -0.4714
     17  C         30.0380  -11.7720   14.3560 C.3     1  LIG1        0.2525
     18  C         22.5940   -6.5950   18.6200 C.3     1  LIG1        0.1997
     19  N         22.5630   -5.2760   18.9310 N.3     1  LIG1       -0.1714
     20  C         21.9030   -5.0570   20.0730 C.3     1  LIG1        0.1818
     21  N         20.6840   -5.6540   20.0620 N.3     1  LIG1       -0.1386
     22  S         21.0380   -7.0570   19.1740 S.3     1  LIG1       -0.0143
     23  C         22.1840   -3.9390   20.9860 C.ar    1  LIG1        0.0109
     24  C         23.3240   -3.1740   20.7790 C.ar    1  LIG1       -0.0015
     25  C         23.6990   -2.3150   21.8040 C.ar    1  LIG1       -0.0002
     26  C         23.2180   -2.4480   23.0900 C.ar    1  LIG1       -0.0000
     27  C         22.3470   -3.4830   23.3660 C.ar    1  LIG1       -0.0002
     28  C         21.7960   -4.1500   22.3050 C.ar    1  LIG1       -0.0015
@<TRIPOS>BOND
     1    12    13   ar
     2    12    11   ar
     3    13    14   ar
     4    11    10   ar
     5    14    16    1
     6    14    15   ar
     7    16    17    1
     8    10    15   ar
     9    10     1    1
    10     1     2   am
    11     3     2    2
    12     2     4   am
    13     5     4    1
    14     5     6    1
    15     4     9    1
    16     6     7    1
    17     7     8    1
    18     7    18    1
    19     8     9    1
    20    18    19    1
    21    18    22    1
    22    19    20    1
    23    22    21    1
    24    21    20    1
    25    20    23    1
    26    24    23   ar
    27    24    25   ar
    28    23    28   ar
    29    25    26   ar
    30    28    27   ar
    31    26    27   ar
@<TRIPOS>MOLECULE
*****_MODEL4
 28 31 0 0 0
SMALL
GASTEIGER

@<TRIPOS>ATOM
      1  N         29.4960  -10.9240   14.2800 N.am    1  LIG1       -0.1621
      2  C         28.3750  -11.6550   13.7680 C.2     1  LIG1        0.3275
      3  O         28.5820  -12.7230   13.1180 O.2     1  LIG1       -0.2504
      4  N         27.1610  -11.6070   14.5260 N.am    1  LIG1       -0.2597
      5  C         27.1340  -12.4430   15.7230 C.3     1  LIG1        0.1124
      6  C         26.0360  -11.9320   16.6210 C.3     1  LIG1        0.0957
      7  N         26.2390  -10.5160   16.9190 N.3     1  LIG1       -0.2470
      8  C         26.3850   -9.6370   15.7610 C.3     1  LIG1        0.0957
      9  C         26.3550  -10.3920   14.4630 C.3     1  LIG1        0.1124
     10  C         30.7300  -11.0240   13.5590 C.ar    1  LIG1        0.0779
     11  C         31.4300  -12.2080   13.7440 C.ar    1  LIG1        0.0169
     12  C         32.2430  -12.7470   12.7710 C.ar    1  LIG1        0.0044
     13  C         32.3000  -12.1230   11.5470 C.ar    1  LIG1        0.0370
     14  C         31.7050  -10.8810   11.3560 C.ar    1  LIG1        0.1400
     15  C         30.7570  -10.4780   12.2820 C.ar    1  LIG1        0.0535
     16  O         31.5450  -10.4900   10.0270 O.3     1  LIG1       -0.4714
     17  C         31.9290   -9.1660    9.6660 C.3     1  LIG1        0.2525
     18  C         25.4170   -9.9810   17.9640 C.3     1  LIG1        0.1997
     19  N         24.2250   -9.3450   17.8570 N.3     1  LIG1       -0.1714
     20  C         24.0700   -8.4290   18.8170 C.3     1  LIG1        0.1818
     21  N         24.3110   -8.9530   20.0450 N.3     1  LIG1       -0.1386
     22  S         25.5540  -10.0480   19.6720 S.3     1  LIG1       -0.0143
     23  C         23.2690   -7.2040   18.6670 C.ar    1  LIG1        0.0109
     24  C         23.6770   -6.0510   19.3260 C.ar    1  LIG1       -0.0015
     25  C         22.7640   -5.0060   19.3850 C.ar    1  LIG1       -0.0002
     26  C         21.4180   -5.1880   19.1450 C.ar    1  LIG1       -0.0000
     27  C         20.9650   -6.4590   18.8530 C.ar    1  LIG1       -0.0002
     28  C         21.9000   -7.4130   18.5480 C.ar    1  LIG1       -0.0015
@<TRIPOS>BOND
     1    17    16    1
     2    16    14    1
     3    14    13   ar
     4    14    15   ar
     5    13    12   ar
     6    15    10   ar
     7    12    11   ar
     8     3     2    2
     9    10    11   ar
    10    10     1    1
    11     2     1   am
    12     2     4   am
    13     9     4    1
    14     9     8    1
    15     4     5    1
    16     5     6    1
    17     8     7    1
    18     6     7    1
    19     7    18    1
    20    19    18    1
    21    19    20    1
    22    18    22    1
    23    28    23   ar
    24    28    27   ar
    25    23    20    1
    26    23    24   ar
    27    20    21    1
    28    27    26   ar
    29    26    25   ar
    30    24    25   ar
    31    22    21    1
@<TRIPOS>MOLECULE
*****_MODEL5
 28 31 0 0 0
SMALL
GASTEIGER

@<TRIPOS>ATOM
      1  N         23.3740   -5.2450   20.2900 N.am    1  LIG1       -0.1621
      2  C         22.5100   -5.4040   19.1580 C.2     1  LIG1        0.3275
      3  O         21.9090   -4.3890   18.6960 O.2     1  LIG1       -0.2504
      4  N         22.8610   -6.4140   18.2050 N.am    1  LIG1       -0.2597
      5  C         23.9530   -6.0700   17.2990 C.3     1  LIG1        0.1124
      6  C         24.4930   -7.3530   16.7160 C.3     1  LIG1        0.0957
      7  N         24.9010   -8.2640   17.7830 N.3     1  LIG1       -0.2470
      8  C         23.8850   -8.5640   18.7880 C.3     1  LIG1        0.0957
      9  C         22.6080   -7.8090   18.5520 C.3     1  LIG1        0.1124
     10  C         23.0620   -4.1920   21.2100 C.ar    1  LIG1        0.0779
     11  C         21.9070   -4.3820   21.9580 C.ar    1  LIG1        0.0169
     12  C         21.7550   -3.8660   23.2260 C.ar    1  LIG1        0.0044
     13  C         22.8170   -3.2010   23.7940 C.ar    1  LIG1        0.0370
     14  C         23.9440   -2.8940   23.0430 C.ar    1  LIG1        0.1400
     15  C         24.1300   -3.5870   21.8580 C.ar    1  LIG1        0.0535
     16  O         25.0690   -2.5140   23.7760 O.3     1  LIG1       -0.4714
     17  C         25.7170   -1.2940   23.4270 C.3     1  LIG1        0.2525
     18  C         25.6670   -9.4010   17.3630 C.3     1  LIG1        0.1997
     19  N         26.7080   -9.4430   16.4960 N.3     1  LIG1       -0.1714
     20  C         26.7410  -10.5990   15.8250 C.3     1  LIG1        0.1818
     21  N         26.6770  -11.6610   16.6670 N.3     1  LIG1       -0.1386
     22  S         25.6440  -11.0410   17.8640 S.3     1  LIG1       -0.0143
     23  C         27.2850  -10.7480   14.4670 C.ar    1  LIG1        0.0109
     24  C         26.4040  -10.8150   13.3960 C.ar    1  LIG1       -0.0015
     25  C         26.9290  -11.2270   12.1770 C.ar    1  LIG1       -0.0002
     26  C         28.1400  -11.8790   12.0780 C.ar    1  LIG1       -0.0000
     27  C         28.8440  -12.1450   13.2350 C.ar    1  LIG1       -0.0002
     28  C         28.4430  -11.5130   14.3820 C.ar    1  LIG1       -0.0015
@<TRIPOS>BOND
     1    26    25   ar
     2    26    27   ar
     3    25    24   ar
     4    27    28   ar
     5    24    23   ar
     6    28    23   ar
     7    23    20    1
     8    20    19    1
     9    20    21    1
    10    19    18    1
    11    21    22    1
    12     6     5    1
    13     6     7    1
    14     5     4    1
    15    18     7    1
    16    18    22    1
    17     7     8    1
    18     4     9    1
    19     4     2   am
    20     9     8    1
    21     3     2    2
    22     2     1   am
    23     1    10    1
    24    10    15   ar
    25    10    11   ar
    26    15    14   ar
    27    11    12   ar
    28    14    16    1
    29    14    13   ar
    30    12    13   ar
    31    17    16    1
@<TRIPOS>MOLECULE
*****_MODEL6
 28 31 0 0 0
SMALL
GASTEIGER

@<TRIPOS>ATOM
      1  N         23.1900   -7.4760   18.4300 N.am    1  LIG1       -0.1621
      2  C         24.4040   -7.5000   17.6700 C.2     1  LIG1        0.3275
      3  O         25.1860   -6.5050   17.7280 O.2     1  LIG1       -0.2504
      4  N         25.0240   -8.7750   17.4670 N.am    1  LIG1       -0.2597
      5  C         25.7560   -9.3070   18.6140 C.3     1  LIG1        0.1124
      6  C         25.9260  -10.7910   18.4080 C.3     1  LIG1        0.0957
      7  N         24.6260  -11.4300   18.2140 N.3     1  LIG1       -0.2470
      8  C         23.7950  -10.8720   17.1500 C.3     1  LIG1        0.0957
      9  C         24.4340   -9.6840   16.4890 C.3     1  LIG1        0.1124
     10  C         22.6030   -6.1960   18.6900 C.ar    1  LIG1        0.0779
     11  C         21.2220   -6.1400   18.5600 C.ar    1  LIG1        0.0169
     12  C         20.4450   -5.2730   19.2960 C.ar    1  LIG1        0.0044
     13  C         21.0590   -4.4870   20.2440 C.ar    1  LIG1        0.0370
     14  C         22.4450   -4.4310   20.3280 C.ar    1  LIG1        0.1400
     15  C         23.1640   -5.4440   19.7140 C.ar    1  LIG1        0.0535
     16  O         22.9530   -3.8710   21.5000 O.3     1  LIG1       -0.4714
     17  C         22.0690   -3.7180   22.6090 C.3     1  LIG1        0.2525
     18  C         24.6290  -12.8620   18.2680 C.3     1  LIG1        0.1997
     19  N         23.8170  -13.6800   18.9820 N.3     1  LIG1       -0.1714
     20  C         24.4510  -14.7970   19.3540 C.3     1  LIG1        0.1818
     21  N         25.0550  -15.3980   18.2980 N.3     1  LIG1       -0.1386
     22  S         25.5290  -14.0360   17.4010 S.3     1  LIG1       -0.0143
     23  C         24.1330  -15.5590   20.5720 C.ar    1  LIG1        0.0109
     24  C         23.3780  -14.9500   21.5660 C.ar    1  LIG1       -0.0015
     25  C         23.3310  -15.5890   22.7980 C.ar    1  LIG1       -0.0002
     26  C         24.2420  -16.5590   23.1610 C.ar    1  LIG1       -0.0000
     27  C         25.2450  -16.8900   22.2720 C.ar    1  LIG1       -0.0002
     28  C         25.1230  -16.4440   20.9820 C.ar    1  LIG1       -0.0015
@<TRIPOS>BOND
     1     9     8    1
     2     9     4    1
     3     8     7    1
     4    22    18    1
     5    22    21    1
     6     4     2   am
     7     4     5    1
     8     2     3    2
     9     2     1   am
    10     7    18    1
    11     7     6    1
    12    18    19    1
    13    21    20    1
    14     6     5    1
    15     1    10    1
    16    11    10   ar
    17    11    12   ar
    18    10    15   ar
    19    19    20    1
    20    12    13   ar
    21    20    23    1
    22    15    14   ar
    23    13    14   ar
    24    14    16    1
    25    23    28   ar
    26    23    24   ar
    27    28    27   ar
    28    16    17    1
    29    24    25   ar
    30    27    26   ar
    31    25    26   ar
@<TRIPOS>MOLECULE
*****_MODEL7
 28 31 0 0 0
SMALL
GASTEIGER

@<TRIPOS>ATOM
      1  N         23.3270   -7.4230   18.6330 N.am    1  LIG1       -0.1621
      2  C         24.4110   -7.4740   17.6980 C.2     1  LIG1        0.3275
      3  O         25.2090   -6.4920   17.6290 O.2     1  LIG1       -0.2504
      4  N         24.9730   -8.7610   17.4170 N.am    1  LIG1       -0.2597
      5  C         25.8600   -9.2970   18.4450 C.3     1  LIG1        0.1124
      6  C         25.9730  -10.7860   18.2300 C.3     1  LIG1        0.0957
      7  N         24.6480  -11.4030   18.2400 N.3     1  LIG1       -0.2470
      8  C         23.6750  -10.8380   17.3090 C.3     1  LIG1        0.0957
      9  C         24.2270   -9.6660   16.5480 C.3     1  LIG1        0.1124
     10  C         22.8060   -6.1310   18.9650 C.ar    1  LIG1        0.0779
     11  C         21.4440   -5.9690   18.7540 C.ar    1  LIG1        0.0169
     12  C         20.6750   -5.1130   19.5120 C.ar    1  LIG1        0.0044
     13  C         21.2710   -4.4530   20.5620 C.ar    1  LIG1        0.0370
     14  C         22.6490   -4.5010   20.7380 C.ar    1  LIG1        0.1400
     15  C         23.3420   -5.5070   20.0840 C.ar    1  LIG1        0.0535
     16  O         23.1090   -4.0770   21.9840 O.3     1  LIG1       -0.4714
     17  C         22.1460   -3.6660   22.9520 C.3     1  LIG1        0.2525
     18  C         24.6360  -12.8350   18.3070 C.3     1  LIG1        0.1997
     19  N         23.8060  -13.6380   19.0170 N.3     1  LIG1       -0.1714
     20  C         24.4230  -14.7570   19.4070 C.3     1  LIG1        0.1818
     21  N         25.0360  -15.3740   18.3660 N.3     1  LIG1       -0.1386
     22  S         25.5360  -14.0250   17.4630 S.3     1  LIG1       -0.0143
     23  C         24.0810  -15.5050   20.6270 C.ar    1  LIG1        0.0109
     24  C         23.0470  -15.0410   21.4300 C.ar    1  LIG1       -0.0015
     25  C         22.9340  -15.6040   22.6950 C.ar    1  LIG1       -0.0002
     26  C         23.9640  -16.3060   23.2840 C.ar    1  LIG1       -0.0000
     27  C         25.1540  -16.4360   22.5970 C.ar    1  LIG1       -0.0002
     28  C         25.1600  -16.1030   21.2680 C.ar    1  LIG1       -0.0015
@<TRIPOS>BOND
     1     9     8    1
     2     9     4    1
     3     8     7    1
     4     4     2   am
     5     4     5    1
     6    22    18    1
     7    22    21    1
     8     3     2    2
     9     2     1   am
    10     6     7    1
    11     6     5    1
    12     7    18    1
    13    18    19    1
    14    21    20    1
    15     1    10    1
    16    11    10   ar
    17    11    12   ar
    18    10    15   ar
    19    19    20    1
    20    20    23    1
    21    12    13   ar
    22    15    14   ar
    23    13    14   ar
    24    23    28   ar
    25    23    24   ar
    26    14    16    1
    27    28    27   ar
    28    24    25   ar
    29    16    17    1
    30    27    26   ar
    31    25    26   ar
@<TRIPOS>MOLECULE
*****_MODEL8
 28 31 0 0 0
SMALL
GASTEIGER

@<TRIPOS>ATOM
      1  N         23.5420  -14.3600   16.8870 N.am    1  LIG1       -0.1621
      2  C         24.4830  -14.1790   15.8220 C.2     1  LIG1        0.3275
      3  O         24.4020  -14.9210   14.7980 O.2     1  LIG1       -0.2504
      4  N         24.9720  -12.8510   15.5990 N.am    1  LIG1       -0.2597
      5  C         24.0510  -11.9510   14.9120 C.3     1  LIG1        0.1124
      6  C         24.5020  -10.5360   15.1760 C.3     1  LIG1        0.0957
      7  N         24.5780  -10.2870   16.6140 N.3     1  LIG1       -0.2470
      8  C         25.3980  -11.2220   17.3800 C.3     1  LIG1        0.0957
      9  C         25.9670  -12.3170   16.5230 C.3     1  LIG1        0.1124
     10  C         23.0030  -15.6740   17.0700 C.ar    1  LIG1        0.0779
     11  C         23.9430  -16.6900   17.1810 C.ar    1  LIG1        0.0169
     12  C         23.7140  -17.8310   17.9180 C.ar    1  LIG1        0.0044
     13  C         22.5400  -17.9290   18.6270 C.ar    1  LIG1        0.0370
     14  C         21.5290  -16.9900   18.4570 C.ar    1  LIG1        0.1400
     15  C         21.8710  -15.7830   17.8680 C.ar    1  LIG1        0.0535
     16  O         20.5350  -16.9950   19.4340 O.3     1  LIG1       -0.4714
     17  C         19.2630  -17.5420   19.0950 C.3     1  LIG1        0.2525
     18  C         24.7400   -8.9140   16.9940 C.3     1  LIG1        0.1997
     19  N         24.2740   -8.2850   18.1000 N.3     1  LIG1       -0.1714
     20  C         23.9930   -7.0020   17.8520 C.3     1  LIG1        0.1818
     21  N         25.0360   -6.3730   17.2550 N.3     1  LIG1       -0.1386
     22  S         25.6460   -7.6360   16.2970 S.3     1  LIG1       -0.0143
     23  C         22.9580   -6.2330   18.5610 C.ar    1  LIG1        0.0109
     24  C         23.3340   -5.4260   19.6260 C.ar    1  LIG1       -0.0015
     25  C         22.3150   -4.9370   20.4330 C.ar    1  LIG1       -0.0002
     26  C         21.0480   -5.4820   20.4330 C.ar    1  LIG1       -0.0000
     27  C         20.7940   -6.5630   19.6130 C.ar    1  LIG1       -0.0002
     28  C         21.7210   -6.8610   18.6500 C.ar    1  LIG1       -0.0015
@<TRIPOS>BOND
     1     3     2    2
     2     5     6    1
     3     5     4    1
     4     6     7    1
     5     4     2   am
     6     4     9    1
     7     2     1   am
     8    22    18    1
     9    22    21    1
    10     9     8    1
    11     7    18    1
    12     7     8    1
    13     1    10    1
    14    18    19    1
    15    10    11   ar
    16    10    15   ar
    17    11    12   ar
    18    21    20    1
    19    20    19    1
    20    20    23    1
    21    15    14   ar
    22    12    13   ar
    23    14    13   ar
    24    14    16    1
    25    23    28   ar
    26    23    24   ar
    27    28    27   ar
    28    17    16    1
    29    27    26   ar
    30    24    25   ar
    31    25    26   ar
@<TRIPOS>MOLECULE
*****_MODEL9
 28 31 0 0 0
SMALL
GASTEIGER

@<TRIPOS>ATOM
      1  N         29.5840  -11.4340   14.0480 N.am    1  LIG1       -0.1621
      2  C         28.3690  -11.3810   13.2910 C.2     1  LIG1        0.3275
      3  O         28.3700  -11.7990   12.0950 O.2     1  LIG1       -0.2504
      4  N         27.1410  -11.5440   14.0110 N.am    1  LIG1       -0.2597
      5  C         26.8170  -12.9140   14.3980 C.3     1  LIG1        0.1124
      6  C         25.7990  -12.8540   15.5090 C.3     1  LIG1        0.0957
      7  N         26.3070  -12.0520   16.6200 N.3     1  LIG1       -0.2470
      8  C         26.7530  -10.7030   16.2810 C.3     1  LIG1        0.0957
      9  C         26.6540  -10.4220   14.8080 C.3     1  LIG1        0.1124
     10  C         30.8140  -11.3370   13.3210 C.ar    1  LIG1        0.0779
     11  C         31.5940  -12.4860   13.3200 C.ar    1  LIG1        0.0169
     12  C         32.4310  -12.8100   12.2750 C.ar    1  LIG1        0.0044
     13  C         32.4350  -11.9990   11.1640 C.ar    1  LIG1        0.0370
     14  C         31.7570  -10.7860   11.1690 C.ar    1  LIG1        0.1400
     15  C         30.7930  -10.5970   12.1460 C.ar    1  LIG1        0.0535
     16  O         31.5600  -10.2030    9.9180 O.3     1  LIG1       -0.4714
     17  C         31.9530   -8.8440    9.7400 C.3     1  LIG1        0.2525
     18  C         25.5500  -12.1320   17.8350 C.3     1  LIG1        0.1997
     19  N         25.1620  -13.2390   18.5140 N.3     1  LIG1       -0.1714
     20  C         23.9920  -13.0490   19.1330 C.3     1  LIG1        0.1818
     21  N         24.0050  -11.9160   19.8790 N.3     1  LIG1       -0.1386
     22  S         24.9820  -10.9220   18.9090 S.3     1  LIG1       -0.0143
     23  C         23.0220  -14.1200   19.4100 C.ar    1  LIG1        0.0109
     24  C         23.2200  -14.9330   20.5180 C.ar    1  LIG1       -0.0015
     25  C         22.4520  -16.0890   20.5940 C.ar    1  LIG1       -0.0002
     26  C         21.8000  -16.6130   19.4980 C.ar    1  LIG1       -0.0000
     27  C         21.9310  -15.9740   18.2820 C.ar    1  LIG1       -0.0002
     28  C         22.4690  -14.7140   18.2810 C.ar    1  LIG1       -0.0015
@<TRIPOS>BOND
     1    17    16    1
     2    16    14    1
     3    13    14   ar
     4    13    12   ar
     5    14    15   ar
     6     3     2    2
     7    15    10   ar
     8    12    11   ar
     9     2     4   am
    10     2     1   am
    11    11    10   ar
    12    10     1    1
    13     4     5    1
    14     4     9    1
    15     5     6    1
    16     9     8    1
    17     6     7    1
    18     8     7    1
    19     7    18    1
    20    18    19    1
    21    18    22    1
    22    28    27   ar
    23    28    23   ar
    24    27    26   ar
    25    19    20    1
    26    22    21    1
    27    20    23    1
    28    20    21    1
    29    23    24   ar
    30    26    25   ar
    31    24    25   ar
@<TRIPOS>MOLECULE
*****_MODEL10
 28 31 0 0 0
SMALL
GASTEIGER

@<TRIPOS>ATOM
      1  N         24.1760  -14.5450   17.0050 N.am    1  LIG1       -0.1621
      2  C         24.9330  -14.2160   15.8340 C.2     1  LIG1        0.3275
      3  O         24.8020  -14.9300   14.7960 O.2     1  LIG1       -0.2504
      4  N         25.2230  -12.8310   15.6100 N.am    1  LIG1       -0.2597
      5  C         24.1140  -12.0330   15.0940 C.3     1  LIG1        0.1124
      6  C         24.4230  -10.5810   15.3620 C.3     1  LIG1        0.0957
      7  N         24.6660  -10.3670   16.7870 N.3     1  LIG1       -0.2470
      8  C         25.6900  -11.2140   17.3930 C.3     1  LIG1        0.0957
      9  C         26.2640  -12.2030   16.4180 C.3     1  LIG1        0.1124
     10  C         23.8300  -15.9210   17.1960 C.ar    1  LIG1        0.0779
     11  C         24.6660  -16.6300   18.0480 C.ar    1  LIG1        0.0169
     12  C         24.2210  -17.6890   18.8090 C.ar    1  LIG1        0.0044
     13  C         22.8830  -18.0050   18.7720 C.ar    1  LIG1        0.0370
     14  C         22.0360  -17.3960   17.8540 C.ar    1  LIG1        0.1400
     15  C         22.4760  -16.2250   17.2570 C.ar    1  LIG1        0.0535
     16  O         20.6720  -17.5420   18.1060 O.3     1  LIG1       -0.4714
     17  C         20.2080  -17.3190   19.4360 C.3     1  LIG1        0.2525
     18  C         24.7120   -8.9970   17.2060 C.3     1  LIG1        0.1997
     19  N         24.3050   -8.4610   18.3820 N.3     1  LIG1       -0.1714
     20  C         23.8530   -7.2140   18.2220 C.3     1  LIG1        0.1818
     21  N         24.7430   -6.4480   17.5420 N.3     1  LIG1       -0.1386
     22  S         25.3810   -7.6000   16.4700 S.3     1  LIG1       -0.0143
     23  C         22.8240   -6.5940   19.0710 C.ar    1  LIG1        0.0109
     24  C         21.5400   -6.4390   18.5640 C.ar    1  LIG1       -0.0015
     25  C         20.6790   -5.6150   19.2770 C.ar    1  LIG1       -0.0002
     26  C         21.1320   -4.7120   20.2160 C.ar    1  LIG1       -0.0000
     27  C         22.4900   -4.6150   20.4390 C.ar    1  LIG1       -0.0002
     28  C         23.2910   -5.6000   19.9240 C.ar    1  LIG1       -0.0015
@<TRIPOS>BOND
     1     3     2    2
     2     5     6    1
     3     5     4    1
     4     6     7    1
     5     4     2   am
     6     4     9    1
     7     2     1   am
     8     9     8    1
     9    22    18    1
    10    22    21    1
    11     7    18    1
    12     7     8    1
    13     1    10    1
    14    10    15   ar
    15    10    11   ar
    16    18    19    1
    17    15    14   ar
    18    21    20    1
    19    14    16    1
    20    14    13   ar
    21    11    12   ar
    22    16    17    1
    23    20    19    1
    24    20    23    1
    25    24    23   ar
    26    24    25   ar
    27    13    12   ar
    28    23    28   ar
    29    25    26   ar
    30    28    27   ar
    31    26    27   ar
