MODEL 1
REMARK NAME *****_MODEL1
REMARK  3 active torsions:
REMARK  status: ('A' for Active; 'I' for Inactive)
REMARK    1  A    between atoms: C_4  and  N_8 
REMARK       I    between atoms: N_8  and  C_9 
REMARK       I    between atoms: C_9  and  N_11 
REMARK    2  A    between atoms: N_14  and  C_17 
REMARK    3  A    between atoms: C_20  and  C_22 
ROOT
ATOM      1  N   LIG d   1      24.196   8.380  27.611  0.00  0.00    -0.193 NA
ATOM      2  C   LIG d   1      22.834   8.431  27.500  0.00  0.00     0.346 C 
ATOM      3  O   LIG d   1      22.437   8.723  26.349  0.00  0.00    -0.245 OA
ATOM      4  N   LIG d   1      21.923   8.192  28.514  0.00  0.00    -0.297 N 
ATOM      5  C   LIG d   1      20.601   7.645  28.246  0.00  0.00     0.130 C 
ATOM      6  C   LIG d   1      19.465   8.408  28.985  0.00  0.00     0.128 C 
ATOM      7  N   LIG d   1      19.859   8.646  30.356  0.00  0.00    -0.323 N 
ATOM      8  C   LIG d   1      21.101   9.362  30.528  0.00  0.00     0.128 C 
ATOM      9  C   LIG d   1      22.238   8.522  29.891  0.00  0.00     0.130 C 
ENDROOT
BRANCH   7  10
ATOM     10  C   LIG d   1      19.177   8.142  31.441  0.00  0.00     0.194 A 
ATOM     11  N   LIG d   1      19.726   7.697  32.596  0.00  0.00    -0.123 NA
ATOM     12  N   LIG d   1      18.945   7.146  33.493  0.00  0.00    -0.140 NA
ATOM     13  C   LIG d   1      17.628   7.052  33.208  0.00  0.00     0.136 A 
ATOM     14  S   LIG d   1      17.460   7.832  31.643  0.00  0.00    -0.028 SA
BRANCH  13  15
ATOM     15  C   LIG d   1      16.623   6.446  33.999  0.00  0.00     0.032 A 
ATOM     16  C   LIG d   1      16.860   5.257  34.742  0.00  0.00     0.037 A 
ATOM     17 BR   LIG d   1      18.467   4.309  34.693  0.00  0.00    -0.049 b 
ATOM     18  C   LIG d   1      15.839   4.705  35.538  0.00  0.00     0.007 A 
ATOM     19  C   LIG d   1      14.572   5.307  35.594  0.00  0.00     0.001 A 
ATOM     20  C   LIG d   1      14.318   6.466  34.845  0.00  0.00     0.000 A 
ATOM     21  C   LIG d   1      15.335   7.031  34.055  0.00  0.00     0.003 A 
ENDBRANCH  13  15
ENDBRANCH   7  10
BRANCH   1  22
ATOM     22  C   LIG d   1      24.935   7.646  28.497  0.00  0.00     0.086 A 
ATOM     23  C   LIG d   1      25.224   8.105  29.804  0.00  0.00     0.015 A 
ATOM     24  C   LIG d   1      25.967   7.321  30.714  0.00  0.00    -0.020 A 
ATOM     25  C   LIG d   1      26.270   7.809  32.079  0.00  0.00     0.031 C 
ATOM     26  C   LIG d   1      26.412   6.046  30.300  0.00  0.00    -0.004 A 
ATOM     27  C   LIG d   1      26.108   5.564  29.013  0.00  0.00     0.001 A 
ATOM     28  C   LIG d   1      25.369   6.359  28.117  0.00  0.00     0.019 A 
ENDBRANCH   1  22
TORSDOF 3
ENDMDL
MODEL 2
REMARK NAME *****_MODEL2
REMARK  3 active torsions:
REMARK  status: ('A' for Active; 'I' for Inactive)
REMARK    1  A    between atoms: C_4  and  N_8 
REMARK       I    between atoms: N_8  and  C_9 
REMARK       I    between atoms: C_9  and  N_11 
REMARK    2  A    between atoms: N_14  and  C_17 
REMARK    3  A    between atoms: C_20  and  C_22 
ROOT
ATOM      1  N   LIG d   1      20.233   6.060  34.395  0.00  0.00    -0.193 NA
ATOM      2  C   LIG d   1      19.252   5.329  35.005  0.00  0.00     0.346 C 
ATOM      3  O   LIG d   1      19.684   4.336  35.633  0.00  0.00    -0.245 OA
ATOM      4  N   LIG d   1      17.894   5.600  34.976  0.00  0.00    -0.297 N 
ATOM      5  C   LIG d   1      17.015   5.234  36.076  0.00  0.00     0.130 C 
ATOM      6  C   LIG d   1      15.705   4.540  35.603  0.00  0.00     0.128 C 
ATOM      7  N   LIG d   1      15.155   5.267  34.480  0.00  0.00    -0.323 N 
ATOM      8  C   LIG d   1      16.042   5.425  33.352  0.00  0.00     0.128 C 
ATOM      9  C   LIG d   1      17.284   6.227  33.819  0.00  0.00     0.130 C 
ENDROOT
BRANCH   7  10
ATOM     10  C   LIG d   1      13.918   5.871  34.498  0.00  0.00     0.194 A 
ATOM     11  N   LIG d   1      12.909   5.605  35.361  0.00  0.00    -0.123 NA
ATOM     12  N   LIG d   1      11.753   6.193  35.177  0.00  0.00    -0.140 NA
ATOM     13  C   LIG d   1      11.634   7.035  34.126  0.00  0.00     0.136 A 
ATOM     14  S   LIG d   1      13.233   7.060  33.401  0.00  0.00    -0.028 SA
BRANCH  13  15
ATOM     15  C   LIG d   1      10.470   7.723  33.710  0.00  0.00     0.032 A 
ATOM     16  C   LIG d   1      10.523   9.031  33.154  0.00  0.00     0.037 A 
ATOM     17 BR   LIG d   1      12.094  10.026  32.996  0.00  0.00    -0.049 b 
ATOM     18  C   LIG d   1       9.342   9.667  32.727  0.00  0.00     0.007 A 
ATOM     19  C   LIG d   1       8.099   9.029  32.862  0.00  0.00     0.001 A 
ATOM     20  C   LIG d   1       8.030   7.748  33.432  0.00  0.00     0.000 A 
ATOM     21  C   LIG d   1       9.206   7.101  33.852  0.00  0.00     0.003 A 
ENDBRANCH  13  15
ENDBRANCH   7  10
BRANCH   1  22
ATOM     22  C   LIG d   1      20.210   7.390  34.081  0.00  0.00     0.086 A 
ATOM     23  C   LIG d   1      19.682   8.367  34.959  0.00  0.00     0.015 A 
ATOM     24  C   LIG d   1      19.692   9.739  34.627  0.00  0.00    -0.020 A 
ATOM     25  C   LIG d   1      19.134  10.756  35.548  0.00  0.00     0.031 C 
ATOM     26  C   LIG d   1      20.257  10.132  33.393  0.00  0.00    -0.004 A 
ATOM     27  C   LIG d   1      20.811   9.175  32.522  0.00  0.00     0.001 A 
ATOM     28  C   LIG d   1      20.791   7.811  32.866  0.00  0.00     0.019 A 
ENDBRANCH   1  22
TORSDOF 3
ENDMDL
MODEL 3
REMARK NAME *****_MODEL3
REMARK  3 active torsions:
REMARK  status: ('A' for Active; 'I' for Inactive)
REMARK    1  A    between atoms: C_4  and  N_8 
REMARK       I    between atoms: N_8  and  C_9 
REMARK       I    between atoms: C_9  and  N_11 
REMARK    2  A    between atoms: N_14  and  C_17 
REMARK    3  A    between atoms: C_20  and  C_22 
ROOT
ATOM      1  N   LIG d   1      20.270   6.062  34.360  0.00  0.00    -0.193 NA
ATOM      2  C   LIG d   1      19.295   5.351  35.001  0.00  0.00     0.346 C 
ATOM      3  O   LIG d   1      19.734   4.380  35.659  0.00  0.00    -0.245 OA
ATOM      4  N   LIG d   1      17.937   5.619  34.974  0.00  0.00    -0.297 N 
ATOM      5  C   LIG d   1      17.066   5.289  36.093  0.00  0.00     0.130 C 
ATOM      6  C   LIG d   1      15.755   4.578  35.654  0.00  0.00     0.128 C 
ATOM      7  N   LIG d   1      15.195   5.266  34.511  0.00  0.00    -0.323 N 
ATOM      8  C   LIG d   1      16.072   5.387  33.371  0.00  0.00     0.128 C 
ATOM      9  C   LIG d   1      17.317   6.206  33.801  0.00  0.00     0.130 C 
ENDROOT
BRANCH   7  10
ATOM     10  C   LIG d   1      13.957   5.869  34.518  0.00  0.00     0.194 A 
ATOM     11  N   LIG d   1      12.923   5.566  35.340  0.00  0.00    -0.123 NA
ATOM     12  N   LIG d   1      11.772   6.161  35.147  0.00  0.00    -0.140 NA
ATOM     13  C   LIG d   1      11.683   7.047  34.130  0.00  0.00     0.136 A 
ATOM     14  S   LIG d   1      13.303   7.104  33.454  0.00  0.00    -0.028 SA
BRANCH  13  15
ATOM     15  C   LIG d   1      10.531   7.753  33.710  0.00  0.00     0.032 A 
ATOM     16  C   LIG d   1      10.607   9.051  33.134  0.00  0.00     0.037 A 
ATOM     17 BR   LIG d   1      12.198  10.011  32.953  0.00  0.00    -0.049 b 
ATOM     18  C   LIG d   1       9.437   9.705  32.703  0.00  0.00     0.007 A 
ATOM     19  C   LIG d   1       8.182   9.094  32.854  0.00  0.00     0.001 A 
ATOM     20  C   LIG d   1       8.091   7.824  33.444  0.00  0.00     0.000 A 
ATOM     21  C   LIG d   1       9.256   7.159  33.868  0.00  0.00     0.003 A 
ENDBRANCH  13  15
ENDBRANCH   7  10
BRANCH   1  22
ATOM     22  C   LIG d   1      20.243   7.381  34.001  0.00  0.00     0.086 A 
ATOM     23  C   LIG d   1      19.752   8.390  34.864  0.00  0.00     0.015 A 
ATOM     24  C   LIG d   1      19.757   9.751  34.485  0.00  0.00    -0.020 A 
ATOM     25  C   LIG d   1      19.237  10.802  35.390  0.00  0.00     0.031 C 
ATOM     26  C   LIG d   1      20.279  10.098  33.219  0.00  0.00    -0.004 A 
ATOM     27  C   LIG d   1      20.797   9.109  32.362  0.00  0.00     0.001 A 
ATOM     28  C   LIG d   1      20.782   7.757  32.753  0.00  0.00     0.019 A 
ENDBRANCH   1  22
TORSDOF 3
ENDMDL
MODEL 4
REMARK NAME *****_MODEL4
REMARK  3 active torsions:
REMARK  status: ('A' for Active; 'I' for Inactive)
REMARK    1  A    between atoms: C_4  and  N_8 
REMARK       I    between atoms: N_8  and  C_9 
REMARK       I    between atoms: C_9  and  N_11 
REMARK    2  A    between atoms: N_14  and  C_17 
REMARK    3  A    between atoms: C_20  and  C_22 
ROOT
ATOM      1  N   LIG d   1      24.081   8.417  27.702  0.00  0.00    -0.193 NA
ATOM      2  C   LIG d   1      22.723   8.401  27.546  0.00  0.00     0.346 C 
ATOM      3  O   LIG d   1      22.347   8.727  26.397  0.00  0.00    -0.245 OA
ATOM      4  N   LIG d   1      21.793   8.065  28.515  0.00  0.00    -0.297 N 
ATOM      5  C   LIG d   1      20.513   7.463  28.176  0.00  0.00     0.130 C 
ATOM      6  C   LIG d   1      19.314   8.128  28.909  0.00  0.00     0.128 C 
ATOM      7  N   LIG d   1      19.649   8.319  30.303  0.00  0.00    -0.323 N 
ATOM      8  C   LIG d   1      20.844   9.091  30.552  0.00  0.00     0.128 C 
ATOM      9  C   LIG d   1      22.045   8.344  29.917  0.00  0.00     0.130 C 
ENDROOT
BRANCH   7  10
ATOM     10  C   LIG d   1      18.961   7.728  31.339  0.00  0.00     0.194 A 
ATOM     11  N   LIG d   1      19.340   6.623  32.025  0.00  0.00    -0.123 NA
ATOM     12  N   LIG d   1      18.518   6.123  32.914  0.00  0.00    -0.140 NA
ATOM     13  C   LIG d   1      17.330   6.742  33.093  0.00  0.00     0.136 A 
ATOM     14  S   LIG d   1      17.392   8.130  32.019  0.00  0.00    -0.028 SA
BRANCH  13  15
ATOM     15  C   LIG d   1      16.278   6.341  33.950  0.00  0.00     0.032 A 
ATOM     16  C   LIG d   1      16.414   5.257  34.860  0.00  0.00     0.037 A 
ATOM     17 BR   LIG d   1      17.936   4.183  34.969  0.00  0.00    -0.049 b 
ATOM     18  C   LIG d   1      15.350   4.911  35.714  0.00  0.00     0.007 A 
ATOM     19  C   LIG d   1      14.137   5.617  35.665  0.00  0.00     0.001 A 
ATOM     20  C   LIG d   1      13.981   6.673  34.754  0.00  0.00     0.000 A 
ATOM     21  C   LIG d   1      15.043   7.032  33.904  0.00  0.00     0.003 A 
ENDBRANCH  13  15
ENDBRANCH   7  10
BRANCH   1  22
ATOM     22  C   LIG d   1      24.829   7.681  28.578  0.00  0.00     0.086 A 
ATOM     23  C   LIG d   1      25.216   8.178  29.846  0.00  0.00     0.015 A 
ATOM     24  C   LIG d   1      25.967   7.392  30.748  0.00  0.00    -0.020 A 
ATOM     25  C   LIG d   1      26.373   7.920  32.071  0.00  0.00     0.031 C 
ATOM     26  C   LIG d   1      26.321   6.079  30.367  0.00  0.00    -0.004 A 
ATOM     27  C   LIG d   1      25.920   5.561  29.121  0.00  0.00     0.001 A 
ATOM     28  C   LIG d   1      25.174   6.357  28.233  0.00  0.00     0.019 A 
ENDBRANCH   1  22
TORSDOF 3
ENDMDL
MODEL 5
REMARK NAME *****_MODEL5
REMARK  3 active torsions:
REMARK  status: ('A' for Active; 'I' for Inactive)
REMARK    1  A    between atoms: C_4  and  N_8 
REMARK       I    between atoms: N_8  and  C_9 
REMARK       I    between atoms: C_9  and  N_11 
REMARK    2  A    between atoms: N_14  and  C_17 
REMARK    3  A    between atoms: C_20  and  C_22 
ROOT
ATOM      1  N   LIG d   1      20.259   6.083  34.350  0.00  0.00    -0.193 NA
ATOM      2  C   LIG d   1      19.289   5.373  35.001  0.00  0.00     0.346 C 
ATOM      3  O   LIG d   1      19.734   4.409  35.665  0.00  0.00    -0.245 OA
ATOM      4  N   LIG d   1      17.930   5.636  34.978  0.00  0.00    -0.297 N 
ATOM      5  C   LIG d   1      17.065   5.311  36.102  0.00  0.00     0.130 C 
ATOM      6  C   LIG d   1      15.754   4.592  35.675  0.00  0.00     0.128 C 
ATOM      7  N   LIG d   1      15.187   5.268  34.529  0.00  0.00    -0.323 N 
ATOM      8  C   LIG d   1      16.059   5.384  33.384  0.00  0.00     0.128 C 
ATOM      9  C   LIG d   1      17.302   6.211  33.803  0.00  0.00     0.130 C 
ENDROOT
BRANCH   7  10
ATOM     10  C   LIG d   1      13.947   5.867  34.536  0.00  0.00     0.194 A 
ATOM     11  N   LIG d   1      12.902   5.535  35.332  0.00  0.00    -0.123 NA
ATOM     12  N   LIG d   1      11.752   6.132  35.141  0.00  0.00    -0.140 NA
ATOM     13  C   LIG d   1      11.675   7.049  34.151  0.00  0.00     0.136 A 
ATOM     14  S   LIG d   1      13.304   7.133  33.502  0.00  0.00    -0.028 SA
BRANCH  13  15
ATOM     15  C   LIG d   1      10.526   7.764  33.736  0.00  0.00     0.032 A 
ATOM     16  C   LIG d   1      10.609   9.066  33.171  0.00  0.00     0.037 A 
ATOM     17 BR   LIG d   1      12.205  10.020  32.998  0.00  0.00    -0.049 b 
ATOM     18  C   LIG d   1       9.443   9.729  32.745  0.00  0.00     0.007 A 
ATOM     19  C   LIG d   1       8.184   9.124  32.890  0.00  0.00     0.001 A 
ATOM     20  C   LIG d   1       8.087   7.849  33.469  0.00  0.00     0.000 A 
ATOM     21  C   LIG d   1       9.248   7.175  33.889  0.00  0.00     0.003 A 
ENDBRANCH  13  15
ENDBRANCH   7  10
BRANCH   1  22
ATOM     22  C   LIG d   1      20.225   7.399  33.981  0.00  0.00     0.086 A 
ATOM     23  C   LIG d   1      19.656   8.401  34.803  0.00  0.00     0.015 A 
ATOM     24  C   LIG d   1      19.655   9.759  34.415  0.00  0.00    -0.020 A 
ATOM     25  C   LIG d   1      19.054  10.803  35.277  0.00  0.00     0.031 C 
ATOM     26  C   LIG d   1      20.250  10.111  33.184  0.00  0.00    -0.004 A 
ATOM     27  C   LIG d   1      20.845   9.129  32.368  0.00  0.00     0.001 A 
ATOM     28  C   LIG d   1      20.836   7.780  32.768  0.00  0.00     0.019 A 
ENDBRANCH   1  22
TORSDOF 3
ENDMDL
MODEL 6
REMARK NAME *****_MODEL6
REMARK  3 active torsions:
REMARK  status: ('A' for Active; 'I' for Inactive)
REMARK    1  A    between atoms: C_4  and  N_8 
REMARK       I    between atoms: N_8  and  C_9 
REMARK       I    between atoms: C_9  and  N_11 
REMARK    2  A    between atoms: N_14  and  C_17 
REMARK    3  A    between atoms: C_20  and  C_22 
ROOT
ATOM      1  N   LIG d   1      24.038   8.308  27.705  0.00  0.00    -0.193 NA
ATOM      2  C   LIG d   1      22.681   8.331  27.547  0.00  0.00     0.346 C 
ATOM      3  O   LIG d   1      22.317   8.574  26.374  0.00  0.00    -0.245 OA
ATOM      4  N   LIG d   1      21.739   8.113  28.538  0.00  0.00    -0.297 N 
ATOM      5  C   LIG d   1      20.437   7.533  28.246  0.00  0.00     0.130 C 
ATOM      6  C   LIG d   1      19.264   8.303  28.918  0.00  0.00     0.128 C 
ATOM      7  N   LIG d   1      19.606   8.597  30.292  0.00  0.00    -0.323 N 
ATOM      8  C   LIG d   1      20.830   9.341  30.479  0.00  0.00     0.128 C 
ATOM      9  C   LIG d   1      22.001   8.498  29.912  0.00  0.00     0.130 C 
ENDROOT
BRANCH   7  10
ATOM     10  C   LIG d   1      18.896   8.121  31.371  0.00  0.00     0.194 A 
ATOM     11  N   LIG d   1      19.419   7.623  32.517  0.00  0.00    -0.123 NA
ATOM     12  N   LIG d   1      18.606   7.110  33.408  0.00  0.00    -0.140 NA
ATOM     13  C   LIG d   1      17.285   7.106  33.127  0.00  0.00     0.136 A 
ATOM     14  S   LIG d   1      17.163   7.920  31.576  0.00  0.00    -0.028 SA
BRANCH  13  15
ATOM     15  C   LIG d   1      16.245   6.554  33.912  0.00  0.00     0.032 A 
ATOM     16  C   LIG d   1      14.935   7.105  33.928  0.00  0.00     0.037 A 
ATOM     17 BR   LIG d   1      14.453   8.656  33.009  0.00  0.00    -0.049 b 
ATOM     18  C   LIG d   1      13.923   6.505  34.703  0.00  0.00     0.007 A 
ATOM     19  C   LIG d   1      14.200   5.370  35.482  0.00  0.00     0.001 A 
ATOM     20  C   LIG d   1      15.496   4.831  35.494  0.00  0.00     0.000 A 
ATOM     21  C   LIG d   1      16.509   5.418  34.715  0.00  0.00     0.003 A 
ENDBRANCH  13  15
ENDBRANCH   7  10
BRANCH   1  22
ATOM     22  C   LIG d   1      24.759   7.621  28.643  0.00  0.00     0.086 A 
ATOM     23  C   LIG d   1      25.230   8.229  29.830  0.00  0.00     0.015 A 
ATOM     24  C   LIG d   1      25.950   7.495  30.799  0.00  0.00    -0.020 A 
ATOM     25  C   LIG d   1      26.445   8.138  32.038  0.00  0.00     0.031 C 
ATOM     26  C   LIG d   1      26.184   6.121  30.569  0.00  0.00    -0.004 A 
ATOM     27  C   LIG d   1      25.697   5.496  29.405  0.00  0.00     0.001 A 
ATOM     28  C   LIG d   1      24.984   6.242  28.449  0.00  0.00     0.019 A 
ENDBRANCH   1  22
TORSDOF 3
ENDMDL
MODEL 7
REMARK NAME *****_MODEL7
REMARK  3 active torsions:
REMARK  status: ('A' for Active; 'I' for Inactive)
REMARK    1  A    between atoms: C_4  and  N_8 
REMARK       I    between atoms: N_8  and  C_9 
REMARK       I    between atoms: C_9  and  N_11 
REMARK    2  A    between atoms: N_14  and  C_17 
REMARK    3  A    between atoms: C_20  and  C_22 
ROOT
ATOM      1  N   LIG d   1      20.117   6.027  34.492  0.00  0.00    -0.193 NA
ATOM      2  C   LIG d   1      19.104   5.269  35.011  0.00  0.00     0.346 C 
ATOM      3  O   LIG d   1      19.498   4.219  35.567  0.00  0.00    -0.245 OA
ATOM      4  N   LIG d   1      17.754   5.571  34.966  0.00  0.00    -0.297 N 
ATOM      5  C   LIG d   1      16.834   5.134  36.007  0.00  0.00     0.130 C 
ATOM      6  C   LIG d   1      15.527   4.510  35.441  0.00  0.00     0.128 C 
ATOM      7  N   LIG d   1      15.025   5.339  34.367  0.00  0.00    -0.323 N 
ATOM      8  C   LIG d   1      15.948   5.570  33.281  0.00  0.00     0.128 C 
ATOM      9  C   LIG d   1      17.190   6.304  33.848  0.00  0.00     0.130 C 
ENDROOT
BRANCH   7  10
ATOM     10  C   LIG d   1      13.800   5.966  34.399  0.00  0.00     0.194 A 
ATOM     11  N   LIG d   1      12.845   5.809  35.347  0.00  0.00    -0.123 NA
ATOM     12  N   LIG d   1      11.687   6.398  35.176  0.00  0.00    -0.140 NA
ATOM     13  C   LIG d   1      11.512   7.130  34.054  0.00  0.00     0.136 A 
ATOM     14  S   LIG d   1      13.061   7.050  33.231  0.00  0.00    -0.028 SA
BRANCH  13  15
ATOM     15  C   LIG d   1      10.333   7.795  33.642  0.00  0.00     0.032 A 
ATOM     16  C   LIG d   1      10.363   9.073  33.019  0.00  0.00     0.037 A 
ATOM     17 BR   LIG d   1      11.926  10.059  32.757  0.00  0.00    -0.049 b 
ATOM     18  C   LIG d   1       9.167   9.685  32.600  0.00  0.00     0.007 A 
ATOM     19  C   LIG d   1       7.931   9.054  32.809  0.00  0.00     0.001 A 
ATOM     20  C   LIG d   1       7.885   7.804  33.446  0.00  0.00     0.000 A 
ATOM     21  C   LIG d   1       9.076   7.180  33.859  0.00  0.00     0.003 A 
ENDBRANCH  13  15
ENDBRANCH   7  10
BRANCH   1  22
ATOM     22  C   LIG d   1      20.129   7.379  34.289  0.00  0.00     0.086 A 
ATOM     23  C   LIG d   1      20.462   7.954  33.039  0.00  0.00     0.015 A 
ATOM     24  C   LIG d   1      20.443   9.352  32.842  0.00  0.00    -0.020 A 
ATOM     25  C   LIG d   1      20.797   9.948  31.533  0.00  0.00     0.031 C 
ATOM     26  C   LIG d   1      20.067  10.181  33.922  0.00  0.00    -0.004 A 
ATOM     27  C   LIG d   1      19.706   9.623  35.163  0.00  0.00     0.001 A 
ATOM     28  C   LIG d   1      19.733   8.228  35.344  0.00  0.00     0.019 A 
ENDBRANCH   1  22
TORSDOF 3
ENDMDL
MODEL 8
REMARK NAME *****_MODEL8
REMARK  3 active torsions:
REMARK  status: ('A' for Active; 'I' for Inactive)
REMARK    1  A    between atoms: C_4  and  N_8 
REMARK       I    between atoms: N_8  and  C_9 
REMARK       I    between atoms: C_9  and  N_11 
REMARK    2  A    between atoms: N_14  and  C_17 
REMARK    3  A    between atoms: C_20  and  C_22 
ROOT
ATOM      1  N   LIG d   1      23.959   8.640  27.559  0.00  0.00    -0.193 NA
ATOM      2  C   LIG d   1      22.668   9.074  27.675  0.00  0.00     0.346 C 
ATOM      3  O   LIG d   1      22.294   9.796  26.722  0.00  0.00    -0.245 OA
ATOM      4  N   LIG d   1      21.799   8.783  28.712  0.00  0.00    -0.297 N 
ATOM      5  C   LIG d   1      20.359   8.707  28.510  0.00  0.00     0.130 C 
ATOM      6  C   LIG d   1      19.551   9.476  29.593  0.00  0.00     0.128 C 
ATOM      7  N   LIG d   1      20.091   9.174  30.901  0.00  0.00    -0.323 N 
ATOM      8  C   LIG d   1      21.496   9.456  31.070  0.00  0.00     0.128 C 
ATOM      9  C   LIG d   1      22.290   8.584  30.063  0.00  0.00     0.130 C 
ENDROOT
BRANCH   7  10
ATOM     10  C   LIG d   1      19.367   8.560  31.898  0.00  0.00     0.194 A 
ATOM     11  N   LIG d   1      19.828   8.213  33.124  0.00  0.00    -0.123 NA
ATOM     12  N   LIG d   1      19.041   7.535  33.923  0.00  0.00    -0.140 NA
ATOM     13  C   LIG d   1      17.807   7.219  33.472  0.00  0.00     0.136 A 
ATOM     14  S   LIG d   1      17.716   7.961  31.883  0.00  0.00    -0.028 SA
BRANCH  13  15
ATOM     15  C   LIG d   1      16.825   6.448  34.138  0.00  0.00     0.032 A 
ATOM     16  C   LIG d   1      17.106   5.159  34.669  0.00  0.00     0.037 A 
ATOM     17 BR   LIG d   1      18.748   4.295  34.472  0.00  0.00    -0.049 b 
ATOM     18  C   LIG d   1      16.105   4.440  35.350  0.00  0.00     0.007 A 
ATOM     19  C   LIG d   1      14.816   4.976  35.497  0.00  0.00     0.001 A 
ATOM     20  C   LIG d   1      14.519   6.237  34.956  0.00  0.00     0.000 A 
ATOM     21  C   LIG d   1      15.515   6.966  34.283  0.00  0.00     0.003 A 
ENDBRANCH  13  15
ENDBRANCH   7  10
BRANCH   1  22
ATOM     22  C   LIG d   1      24.509   7.506  28.088  0.00  0.00     0.086 A 
ATOM     23  C   LIG d   1      23.837   6.261  28.075  0.00  0.00     0.015 A 
ATOM     24  C   LIG d   1      24.435   5.095  28.604  0.00  0.00    -0.020 A 
ATOM     25  C   LIG d   1      23.724   3.795  28.591  0.00  0.00     0.031 C 
ATOM     26  C   LIG d   1      25.737   5.188  29.141  0.00  0.00    -0.004 A 
ATOM     27  C   LIG d   1      26.429   6.414  29.136  0.00  0.00     0.001 A 
ATOM     28  C   LIG d   1      25.819   7.566  28.608  0.00  0.00     0.019 A 
ENDBRANCH   1  22
TORSDOF 3
ENDMDL
MODEL 9
REMARK NAME *****_MODEL9
REMARK  3 active torsions:
REMARK  status: ('A' for Active; 'I' for Inactive)
REMARK    1  A    between atoms: C_4  and  N_8 
REMARK       I    between atoms: N_8  and  C_9 
REMARK       I    between atoms: C_9  and  N_11 
REMARK    2  A    between atoms: N_14  and  C_17 
REMARK    3  A    between atoms: C_20  and  C_22 
ROOT
ATOM      1  N   LIG d   1      23.848   9.005  28.123  0.00  0.00    -0.193 NA
ATOM      2  C   LIG d   1      22.560   9.450  28.015  0.00  0.00     0.346 C 
ATOM      3  O   LIG d   1      22.406  10.331  27.139  0.00  0.00    -0.245 OA
ATOM      4  N   LIG d   1      21.480   9.015  28.764  0.00  0.00    -0.297 N 
ATOM      5  C   LIG d   1      20.126   9.015  28.231  0.00  0.00     0.130 C 
ATOM      6  C   LIG d   1      19.083   9.615  29.217  0.00  0.00     0.128 C 
ATOM      7  N   LIG d   1      19.313   9.084  30.542  0.00  0.00    -0.323 N 
ATOM      8  C   LIG d   1      20.641   9.293  31.070  0.00  0.00     0.128 C 
ATOM      9  C   LIG d   1      21.653   8.580  30.137  0.00  0.00     0.130 C 
ENDROOT
BRANCH   7  10
ATOM     10  C   LIG d   1      18.388   8.332  31.231  0.00  0.00     0.194 A 
ATOM     11  N   LIG d   1      17.079   8.186  30.914  0.00  0.00    -0.123 NA
ATOM     12  N   LIG d   1      16.304   7.521  31.735  0.00  0.00    -0.140 NA
ATOM     13  C   LIG d   1      16.861   7.018  32.859  0.00  0.00     0.136 A 
ATOM     14  S   LIG d   1      18.562   7.434  32.730  0.00  0.00    -0.028 SA
BRANCH  13  15
ATOM     15  C   LIG d   1      16.203   6.325  33.902  0.00  0.00     0.032 A 
ATOM     16  C   LIG d   1      16.778   5.190  34.536  0.00  0.00     0.037 A 
ATOM     17 BR   LIG d   1      18.399   4.424  34.017  0.00  0.00    -0.049 b 
ATOM     18  C   LIG d   1      16.100   4.548  35.591  0.00  0.00     0.007 A 
ATOM     19  C   LIG d   1      14.843   5.007  36.014  0.00  0.00     0.001 A 
ATOM     20  C   LIG d   1      14.254   6.112  35.380  0.00  0.00     0.000 A 
ATOM     21  C   LIG d   1      14.928   6.765  34.333  0.00  0.00     0.003 A 
ENDBRANCH  13  15
ENDBRANCH   7  10
BRANCH   1  22
ATOM     22  C   LIG d   1      24.275   7.783  28.564  0.00  0.00     0.086 A 
ATOM     23  C   LIG d   1      23.643   6.577  28.180  0.00  0.00     0.015 A 
ATOM     24  C   LIG d   1      24.116   5.323  28.626  0.00  0.00    -0.020 A 
ATOM     25  C   LIG d   1      23.448   4.063  28.224  0.00  0.00     0.031 C 
ATOM     26  C   LIG d   1      25.254   5.288  29.461  0.00  0.00    -0.004 A 
ATOM     27  C   LIG d   1      25.910   6.478  29.829  0.00  0.00     0.001 A 
ATOM     28  C   LIG d   1      25.425   7.720  29.379  0.00  0.00     0.019 A 
ENDBRANCH   1  22
TORSDOF 3
ENDMDL
MODEL 10
REMARK NAME *****_MODEL10
REMARK  3 active torsions:
REMARK  status: ('A' for Active; 'I' for Inactive)
REMARK    1  A    between atoms: C_4  and  N_8 
REMARK       I    between atoms: N_8  and  C_9 
REMARK       I    between atoms: C_9  and  N_11 
REMARK    2  A    between atoms: N_14  and  C_17 
REMARK    3  A    between atoms: C_20  and  C_22 
ROOT
ATOM      1  N   LIG d   1      23.829   8.968  28.043  0.00  0.00    -0.193 NA
ATOM      2  C   LIG d   1      22.546   9.432  27.960  0.00  0.00     0.346 C 
ATOM      3  O   LIG d   1      22.394  10.333  27.103  0.00  0.00    -0.245 OA
ATOM      4  N   LIG d   1      21.470   8.997  28.714  0.00  0.00    -0.297 N 
ATOM      5  C   LIG d   1      20.109   9.025  28.198  0.00  0.00     0.130 C 
ATOM      6  C   LIG d   1      19.087   9.621  29.209  0.00  0.00     0.128 C 
ATOM      7  N   LIG d   1      19.326   9.060  30.521  0.00  0.00    -0.323 N 
ATOM      8  C   LIG d   1      20.663   9.241  31.036  0.00  0.00     0.128 C 
ATOM      9  C   LIG d   1      21.653   8.532  30.076  0.00  0.00     0.130 C 
ENDROOT
BRANCH   7  10
ATOM     10  C   LIG d   1      18.400   8.308  31.206  0.00  0.00     0.194 A 
ATOM     11  N   LIG d   1      17.085   8.185  30.903  0.00  0.00    -0.123 NA
ATOM     12  N   LIG d   1      16.311   7.515  31.721  0.00  0.00    -0.140 NA
ATOM     13  C   LIG d   1      16.875   6.983  32.828  0.00  0.00     0.136 A 
ATOM     14  S   LIG d   1      18.580   7.378  32.686  0.00  0.00    -0.028 SA
BRANCH  13  15
ATOM     15  C   LIG d   1      16.220   6.279  33.866  0.00  0.00     0.032 A 
ATOM     16  C   LIG d   1      16.775   5.109  34.453  0.00  0.00     0.037 A 
ATOM     17 BR   LIG d   1      18.361   4.313  33.874  0.00  0.00    -0.049 b 
ATOM     18  C   LIG d   1      16.102   4.456  35.504  0.00  0.00     0.007 A 
ATOM     19  C   LIG d   1      14.869   4.939  35.970  0.00  0.00     0.001 A 
ATOM     20  C   LIG d   1      14.299   6.078  35.382  0.00  0.00     0.000 A 
ATOM     21  C   LIG d   1      14.969   6.742  34.339  0.00  0.00     0.003 A 
ENDBRANCH  13  15
ENDBRANCH   7  10
BRANCH   1  22
ATOM     22  C   LIG d   1      24.245   7.732  28.455  0.00  0.00     0.086 A 
ATOM     23  C   LIG d   1      23.505   6.556  28.186  0.00  0.00     0.015 A 
ATOM     24  C   LIG d   1      23.965   5.285  28.597  0.00  0.00    -0.020 A 
ATOM     25  C   LIG d   1      23.184   4.058  28.316  0.00  0.00     0.031 C 
ATOM     26  C   LIG d   1      25.199   5.201  29.278  0.00  0.00    -0.004 A 
ATOM     27  C   LIG d   1      25.960   6.359  29.528  0.00  0.00     0.001 A 
ATOM     28  C   LIG d   1      25.486   7.618  29.115  0.00  0.00     0.019 A 
ENDBRANCH   1  22
TORSDOF 3
ENDMDL
