MODEL 1
REMARK NAME *****_MODEL1
REMARK  3 active torsions:
REMARK  status: ('A' for Active; 'I' for Inactive)
REMARK    1  A    between atoms: C_4  and  N_8 
REMARK       I    between atoms: N_8  and  C_9 
REMARK    2  A    between atoms: C_9  and  C_11 
REMARK    3  A    between atoms: N_14  and  C_17 
ROOT
ATOM      1  C   LIG d   1      13.925   6.384  35.038  0.00  0.00     0.085 C 
ATOM      2  C   LIG d   1      12.672   7.010  35.724  0.00  0.00     0.034 C 
ATOM      3  C   LIG d   1      12.349   8.393  35.107  0.00  0.00     0.120 C 
ATOM      4  N   LIG d   1      12.156   8.255  33.675  0.00  0.00    -0.183 N 
ATOM      5  C   LIG d   1      13.302   7.736  32.943  0.00  0.00     0.120 C 
ATOM      6  C   LIG d   1      13.716   6.342  33.490  0.00  0.00     0.034 C 
ENDROOT
BRANCH   1   7
ATOM      7  C   LIG d   1      14.250   5.052  35.628  0.00  0.00     0.255 C 
ATOM      8  N   LIG d   1      15.475   4.445  35.653  0.00  0.00    -0.212 NA
ATOM      9  O   LIG d   1      13.323   4.387  36.142  0.00  0.00    -0.270 OA
BRANCH   8  10
ATOM     10  C   LIG d   1      16.680   4.955  35.281  0.00  0.00     0.084 A 
ATOM     11  C   LIG d   1      17.055   6.290  35.547  0.00  0.00     0.015 A 
ATOM     12  C   LIG d   1      18.293   6.806  35.103  0.00  0.00    -0.020 A 
ATOM     13  C   LIG d   1      18.664   8.222  35.331  0.00  0.00     0.031 C 
ATOM     14  C   LIG d   1      19.182   5.943  34.425  0.00  0.00    -0.004 A 
ATOM     15  C   LIG d   1      18.848   4.593  34.215  0.00  0.00     0.001 A 
ATOM     16  C   LIG d   1      17.604   4.102  34.646  0.00  0.00     0.019 A 
ENDBRANCH   8  10
ENDBRANCH   1   7
BRANCH   4  17
ATOM     17  C   LIG d   1      10.945   8.551  33.063  0.00  0.00     0.727 A 
ATOM     18  N   LIG d   1       9.755   8.299  33.681  0.00  0.00    -0.060 NA
ATOM     19  C   LIG d   1       8.550   8.542  33.108  0.00  0.00     0.120 A 
ATOM     20  C   LIG d   1       8.499   9.085  31.814  0.00  0.00     0.043 A 
ATOM     21  C   LIG d   1       9.715   9.351  31.169  0.00  0.00     0.120 A 
ATOM     22  N   LIG d   1      10.884   9.080  31.806  0.00  0.00    -0.060 NA
ENDBRANCH   4  17
TORSDOF 3
ENDMDL
MODEL 2
REMARK NAME *****_MODEL2
REMARK  3 active torsions:
REMARK  status: ('A' for Active; 'I' for Inactive)
REMARK    1  A    between atoms: C_4  and  N_8 
REMARK       I    between atoms: N_8  and  C_9 
REMARK    2  A    between atoms: C_9  and  C_11 
REMARK    3  A    between atoms: N_14  and  C_17 
ROOT
ATOM      1  C   LIG d   1      14.074   6.279  35.040  0.00  0.00     0.085 C 
ATOM      2  C   LIG d   1      14.844   6.096  33.696  0.00  0.00     0.034 C 
ATOM      3  C   LIG d   1      16.342   6.446  33.877  0.00  0.00     0.120 C 
ATOM      4  N   LIG d   1      16.911   5.625  34.930  0.00  0.00    -0.183 N 
ATOM      5  C   LIG d   1      16.292   5.780  36.238  0.00  0.00     0.120 C 
ATOM      6  C   LIG d   1      14.774   5.455  36.168  0.00  0.00     0.034 C 
ENDROOT
BRANCH   1   7
ATOM      7  C   LIG d   1      12.627   5.949  34.877  0.00  0.00     0.255 C 
ATOM      8  N   LIG d   1      11.674   6.723  34.275  0.00  0.00    -0.212 NA
ATOM      9  O   LIG d   1      12.206   4.868  35.348  0.00  0.00    -0.270 OA
BRANCH   8  10
ATOM     10  C   LIG d   1      11.839   7.880  33.578  0.00  0.00     0.084 A 
ATOM     11  C   LIG d   1      13.032   8.635  33.629  0.00  0.00     0.015 A 
ATOM     12  C   LIG d   1      13.154   9.860  32.936  0.00  0.00    -0.020 A 
ATOM     13  C   LIG d   1      14.384  10.679  33.033  0.00  0.00     0.031 C 
ATOM     14  C   LIG d   1      12.072  10.299  32.143  0.00  0.00    -0.004 A 
ATOM     15  C   LIG d   1      10.905   9.522  32.030  0.00  0.00     0.001 A 
ATOM     16  C   LIG d   1      10.793   8.316  32.742  0.00  0.00     0.019 A 
ENDBRANCH   8  10
ENDBRANCH   1   7
BRANCH   4  17
ATOM     17  C   LIG d   1      17.937   4.722  34.687  0.00  0.00     0.727 A 
ATOM     18  N   LIG d   1      17.758   3.643  33.871  0.00  0.00    -0.060 NA
ATOM     19  C   LIG d   1      18.723   2.720  33.631  0.00  0.00     0.120 A 
ATOM     20  C   LIG d   1      19.980   2.863  34.240  0.00  0.00     0.043 A 
ATOM     21  C   LIG d   1      20.177   3.969  35.080  0.00  0.00     0.120 A 
ATOM     22  N   LIG d   1      19.164   4.852  35.272  0.00  0.00    -0.060 NA
ENDBRANCH   4  17
TORSDOF 3
ENDMDL
MODEL 3
REMARK NAME *****_MODEL3
REMARK  3 active torsions:
REMARK  status: ('A' for Active; 'I' for Inactive)
REMARK    1  A    between atoms: C_4  and  N_8 
REMARK       I    between atoms: N_8  and  C_9 
REMARK    2  A    between atoms: C_9  and  C_11 
REMARK    3  A    between atoms: N_14  and  C_17 
ROOT
ATOM      1  C   LIG d   1      16.986   8.854  33.067  0.00  0.00     0.085 C 
ATOM      2  C   LIG d   1      17.784   7.711  32.368  0.00  0.00     0.034 C 
ATOM      3  C   LIG d   1      19.275   7.755  32.786  0.00  0.00     0.120 C 
ATOM      4  N   LIG d   1      19.378   7.667  34.232  0.00  0.00    -0.183 N 
ATOM      5  C   LIG d   1      18.714   8.733  34.967  0.00  0.00     0.120 C 
ATOM      6  C   LIG d   1      17.201   8.781  34.613  0.00  0.00     0.034 C 
ENDROOT
BRANCH   1   7
ATOM      7  C   LIG d   1      15.548   8.824  32.668  0.00  0.00     0.255 C 
ATOM      8  N   LIG d   1      14.612   7.904  33.049  0.00  0.00    -0.212 NA
ATOM      9  O   LIG d   1      15.129   9.709  31.888  0.00  0.00    -0.270 OA
BRANCH   8  10
ATOM     10  C   LIG d   1      14.730   6.905  33.965  0.00  0.00     0.084 A 
ATOM     11  C   LIG d   1      15.855   6.053  34.021  0.00  0.00     0.015 A 
ATOM     12  C   LIG d   1      15.926   4.991  34.950  0.00  0.00    -0.020 A 
ATOM     13  C   LIG d   1      17.079   4.063  34.972  0.00  0.00     0.031 C 
ATOM     14  C   LIG d   1      14.865   4.824  35.867  0.00  0.00    -0.004 A 
ATOM     15  C   LIG d   1      13.771   5.708  35.866  0.00  0.00     0.001 A 
ATOM     16  C   LIG d   1      13.708   6.747  34.922  0.00  0.00     0.019 A 
ENDBRANCH   8  10
ENDBRANCH   1   7
BRANCH   4  17
ATOM     17  C   LIG d   1      20.023   6.610  34.861  0.00  0.00     0.727 A 
ATOM     18  N   LIG d   1      20.823   6.810  35.949  0.00  0.00    -0.060 NA
ATOM     19  C   LIG d   1      21.496   5.812  36.574  0.00  0.00     0.120 A 
ATOM     20  C   LIG d   1      21.376   4.497  36.098  0.00  0.00     0.043 A 
ATOM     21  C   LIG d   1      20.555   4.278  34.982  0.00  0.00     0.120 A 
ATOM     22  N   LIG d   1      19.912   5.327  34.409  0.00  0.00    -0.060 NA
ENDBRANCH   4  17
TORSDOF 3
ENDMDL
MODEL 4
REMARK NAME *****_MODEL4
REMARK  3 active torsions:
REMARK  status: ('A' for Active; 'I' for Inactive)
REMARK    1  A    between atoms: C_4  and  N_8 
REMARK       I    between atoms: N_8  and  C_9 
REMARK    2  A    between atoms: C_9  and  C_11 
REMARK    3  A    between atoms: N_14  and  C_17 
ROOT
ATOM      1  C   LIG d   1      16.984   8.898  33.010  0.00  0.00     0.085 C 
ATOM      2  C   LIG d   1      17.920   7.879  32.291  0.00  0.00     0.034 C 
ATOM      3  C   LIG d   1      19.363   7.984  32.842  0.00  0.00     0.120 C 
ATOM      4  N   LIG d   1      19.353   7.772  34.279  0.00  0.00    -0.183 N 
ATOM      5  C   LIG d   1      18.552   8.720  35.039  0.00  0.00     0.120 C 
ATOM      6  C   LIG d   1      17.075   8.700  34.557  0.00  0.00     0.034 C 
ENDROOT
BRANCH   1   7
ATOM      7  C   LIG d   1      15.590   8.809  32.483  0.00  0.00     0.255 C 
ATOM      8  N   LIG d   1      14.650   7.871  32.809  0.00  0.00    -0.212 NA
ATOM      9  O   LIG d   1      15.219   9.654  31.638  0.00  0.00    -0.270 OA
BRANCH   8  10
ATOM     10  C   LIG d   1      14.714   6.907  33.767  0.00  0.00     0.084 A 
ATOM     11  C   LIG d   1      15.820   6.040  33.901  0.00  0.00     0.015 A 
ATOM     12  C   LIG d   1      15.834   5.013  34.872  0.00  0.00    -0.020 A 
ATOM     13  C   LIG d   1      16.969   4.068  34.977  0.00  0.00     0.031 C 
ATOM     14  C   LIG d   1      14.733   4.898  35.749  0.00  0.00    -0.004 A 
ATOM     15  C   LIG d   1      13.657   5.799  35.670  0.00  0.00     0.001 A 
ATOM     16  C   LIG d   1      13.650   6.801  34.685  0.00  0.00     0.019 A 
ENDBRANCH   8  10
ENDBRANCH   1   7
BRANCH   4  17
ATOM     17  C   LIG d   1      20.020   6.708  34.871  0.00  0.00     0.727 A 
ATOM     18  N   LIG d   1      19.846   5.427  34.434  0.00  0.00    -0.060 NA
ATOM     19  C   LIG d   1      20.453   4.355  35.003  0.00  0.00     0.120 A 
ATOM     20  C   LIG d   1      21.311   4.550  36.097  0.00  0.00     0.043 A 
ATOM     21  C   LIG d   1      21.499   5.862  36.555  0.00  0.00     0.120 A 
ATOM     22  N   LIG d   1      20.858   6.885  35.934  0.00  0.00    -0.060 NA
ENDBRANCH   4  17
TORSDOF 3
ENDMDL
MODEL 5
REMARK NAME *****_MODEL5
REMARK  3 active torsions:
REMARK  status: ('A' for Active; 'I' for Inactive)
REMARK    1  A    between atoms: C_4  and  N_8 
REMARK       I    between atoms: N_8  and  C_9 
REMARK    2  A    between atoms: C_9  and  C_11 
REMARK    3  A    between atoms: N_14  and  C_17 
ROOT
ATOM      1  C   LIG d   1      26.658  10.627  30.379  0.00  0.00     0.085 C 
ATOM      2  C   LIG d   1      25.476  11.354  29.667  0.00  0.00     0.034 C 
ATOM      3  C   LIG d   1      24.377  11.734  30.690  0.00  0.00     0.120 C 
ATOM      4  N   LIG d   1      24.950  12.556  31.739  0.00  0.00    -0.183 N 
ATOM      5  C   LIG d   1      26.021  11.931  32.501  0.00  0.00     0.120 C 
ATOM      6  C   LIG d   1      27.183  11.503  31.561  0.00  0.00     0.034 C 
ENDROOT
BRANCH   1   7
ATOM      7  C   LIG d   1      27.722  10.252  29.402  0.00  0.00     0.255 C 
ATOM      8  N   LIG d   1      27.869   9.046  28.776  0.00  0.00    -0.212 NA
ATOM      9  O   LIG d   1      28.599  11.100  29.122  0.00  0.00    -0.270 OA
BRANCH   8  10
ATOM     10  C   LIG d   1      27.025   7.978  28.786  0.00  0.00     0.084 A 
ATOM     11  C   LIG d   1      25.632   8.108  28.595  0.00  0.00     0.015 A 
ATOM     12  C   LIG d   1      24.775   6.987  28.664  0.00  0.00    -0.020 A 
ATOM     13  C   LIG d   1      23.308   7.129  28.520  0.00  0.00     0.031 C 
ATOM     14  C   LIG d   1      25.344   5.713  28.878  0.00  0.00    -0.004 A 
ATOM     15  C   LIG d   1      26.737   5.562  29.000  0.00  0.00     0.001 A 
ATOM     16  C   LIG d   1      27.573   6.691  28.950  0.00  0.00     0.019 A 
ENDBRANCH   8  10
ENDBRANCH   1   7
BRANCH   4  17
ATOM     17  C   LIG d   1      24.535  13.864  31.960  0.00  0.00     0.727 A 
ATOM     18  N   LIG d   1      23.439  14.144  32.723  0.00  0.00    -0.060 NA
ATOM     19  C   LIG d   1      22.981  15.402  32.939  0.00  0.00     0.120 A 
ATOM     20  C   LIG d   1      23.655  16.489  32.360  0.00  0.00     0.043 A 
ATOM     21  C   LIG d   1      24.785  16.215  31.575  0.00  0.00     0.120 A 
ATOM     22  N   LIG d   1      25.184  14.928  31.404  0.00  0.00    -0.060 NA
ENDBRANCH   4  17
TORSDOF 3
ENDMDL
MODEL 6
REMARK NAME *****_MODEL6
REMARK  3 active torsions:
REMARK  status: ('A' for Active; 'I' for Inactive)
REMARK    1  A    between atoms: C_4  and  N_8 
REMARK       I    between atoms: N_8  and  C_9 
REMARK    2  A    between atoms: C_9  and  C_11 
REMARK    3  A    between atoms: N_14  and  C_17 
ROOT
ATOM      1  C   LIG d   1      18.306   7.143  34.809  0.00  0.00     0.085 C 
ATOM      2  C   LIG d   1      17.365   8.047  33.955  0.00  0.00     0.034 C 
ATOM      3  C   LIG d   1      17.495   9.528  34.389  0.00  0.00     0.120 C 
ATOM      4  N   LIG d   1      18.880   9.949  34.277  0.00  0.00    -0.183 N 
ATOM      5  C   LIG d   1      19.823   9.198  35.091  0.00  0.00     0.120 C 
ATOM      6  C   LIG d   1      19.769   7.685  34.738  0.00  0.00     0.034 C 
ENDROOT
BRANCH   1   7
ATOM      7  C   LIG d   1      18.185   5.711  34.403  0.00  0.00     0.255 C 
ATOM      8  N   LIG d   1      17.099   4.900  34.580  0.00  0.00    -0.212 NA
ATOM      9  O   LIG d   1      19.170   5.161  33.861  0.00  0.00    -0.270 OA
BRANCH   8  10
ATOM     10  C   LIG d   1      15.858   5.232  35.028  0.00  0.00     0.084 A 
ATOM     11  C   LIG d   1      14.920   5.922  34.230  0.00  0.00     0.015 A 
ATOM     12  C   LIG d   1      13.658   6.299  34.740  0.00  0.00    -0.020 A 
ATOM     13  C   LIG d   1      12.696   7.072  33.922  0.00  0.00     0.031 C 
ATOM     14  C   LIG d   1      13.325   5.927  36.061  0.00  0.00    -0.004 A 
ATOM     15  C   LIG d   1      14.224   5.180  36.843  0.00  0.00     0.001 A 
ATOM     16  C   LIG d   1      15.483   4.831  36.326  0.00  0.00     0.019 A 
ENDBRANCH   8  10
ENDBRANCH   1   7
BRANCH   4  17
ATOM     17  C   LIG d   1      19.275  10.962  33.412  0.00  0.00     0.727 A 
ATOM     18  N   LIG d   1      18.493  12.061  33.199  0.00  0.00    -0.060 NA
ATOM     19  C   LIG d   1      18.825  13.057  32.341  0.00  0.00     0.120 A 
ATOM     20  C   LIG d   1      20.031  12.979  31.627  0.00  0.00     0.043 A 
ATOM     21  C   LIG d   1      20.845  11.856  31.839  0.00  0.00     0.120 A 
ATOM     22  N   LIG d   1      20.446  10.898  32.715  0.00  0.00    -0.060 NA
ENDBRANCH   4  17
TORSDOF 3
ENDMDL
MODEL 7
REMARK NAME *****_MODEL7
REMARK  3 active torsions:
REMARK  status: ('A' for Active; 'I' for Inactive)
REMARK    1  A    between atoms: C_4  and  N_8 
REMARK       I    between atoms: N_8  and  C_9 
REMARK    2  A    between atoms: C_9  and  C_11 
REMARK    3  A    between atoms: N_14  and  C_17 
ROOT
ATOM      1  C   LIG d   1      18.275   7.416  34.829  0.00  0.00     0.085 C 
ATOM      2  C   LIG d   1      17.456   8.196  33.756  0.00  0.00     0.034 C 
ATOM      3  C   LIG d   1      17.423   9.707  34.092  0.00  0.00     0.120 C 
ATOM      4  N   LIG d   1      18.779  10.214  34.195  0.00  0.00    -0.183 N 
ATOM      5  C   LIG d   1      19.599   9.584  35.219  0.00  0.00     0.120 C 
ATOM      6  C   LIG d   1      19.694   8.051  34.977  0.00  0.00     0.034 C 
ENDROOT
BRANCH   1   7
ATOM      7  C   LIG d   1      18.310   5.956  34.519  0.00  0.00     0.255 C 
ATOM      8  N   LIG d   1      17.283   5.065  34.658  0.00  0.00    -0.212 NA
ATOM      9  O   LIG d   1      19.383   5.460  34.105  0.00  0.00    -0.270 OA
BRANCH   8  10
ATOM     10  C   LIG d   1      15.982   5.314  34.971  0.00  0.00     0.084 A 
ATOM     11  C   LIG d   1      15.117   6.030  34.114  0.00  0.00     0.015 A 
ATOM     12  C   LIG d   1      13.787   6.319  34.490  0.00  0.00    -0.020 A 
ATOM     13  C   LIG d   1      12.896   7.117  33.616  0.00  0.00     0.031 C 
ATOM     14  C   LIG d   1      13.313   5.833  35.728  0.00  0.00    -0.004 A 
ATOM     15  C   LIG d   1      14.144   5.060  36.559  0.00  0.00     0.001 A 
ATOM     16  C   LIG d   1      15.471   4.799  36.179  0.00  0.00     0.019 A 
ENDBRANCH   8  10
ENDBRANCH   1   7
BRANCH   4  17
ATOM     17  C   LIG d   1      19.267  11.194  33.340  0.00  0.00     0.727 A 
ATOM     18  N   LIG d   1      20.478  11.064  32.725  0.00  0.00    -0.060 NA
ATOM     19  C   LIG d   1      21.006  12.009  31.908  0.00  0.00     0.120 A 
ATOM     20  C   LIG d   1      20.287  13.189  31.665  0.00  0.00     0.043 A 
ATOM     21  C   LIG d   1      19.039  13.334  32.289  0.00  0.00     0.120 A 
ATOM     22  N   LIG d   1      18.575  12.344  33.095  0.00  0.00    -0.060 NA
ENDBRANCH   4  17
TORSDOF 3
ENDMDL
MODEL 8
REMARK NAME *****_MODEL8
REMARK  3 active torsions:
REMARK  status: ('A' for Active; 'I' for Inactive)
REMARK    1  A    between atoms: C_4  and  N_8 
REMARK       I    between atoms: N_8  and  C_9 
REMARK    2  A    between atoms: C_9  and  C_11 
REMARK    3  A    between atoms: N_14  and  C_17 
ROOT
ATOM      1  C   LIG d   1      18.887   6.121  34.607  0.00  0.00     0.085 C 
ATOM      2  C   LIG d   1      17.952   5.918  33.376  0.00  0.00     0.034 C 
ATOM      3  C   LIG d   1      16.701   5.098  33.774  0.00  0.00     0.120 C 
ATOM      4  N   LIG d   1      16.008   5.763  34.863  0.00  0.00    -0.183 N 
ATOM      5  C   LIG d   1      16.788   5.938  36.078  0.00  0.00     0.120 C 
ATOM      6  C   LIG d   1      18.080   6.751  35.787  0.00  0.00     0.034 C 
ENDROOT
BRANCH   1   7
ATOM      7  C   LIG d   1      20.101   6.907  34.234  0.00  0.00     0.255 C 
ATOM      8  N   LIG d   1      20.152   8.241  33.938  0.00  0.00    -0.212 NA
ATOM      9  O   LIG d   1      21.197   6.308  34.155  0.00  0.00    -0.270 OA
BRANCH   8  10
ATOM     10  C   LIG d   1      19.165   9.171  34.045  0.00  0.00     0.084 A 
ATOM     11  C   LIG d   1      18.036   9.182  33.197  0.00  0.00     0.015 A 
ATOM     12  C   LIG d   1      17.052  10.192  33.298  0.00  0.00    -0.020 A 
ATOM     13  C   LIG d   1      15.897  10.236  32.373  0.00  0.00     0.031 C 
ATOM     14  C   LIG d   1      17.191  11.172  34.304  0.00  0.00    -0.004 A 
ATOM     15  C   LIG d   1      18.276  11.132  35.199  0.00  0.00     0.001 A 
ATOM     16  C   LIG d   1      19.255  10.132  35.071  0.00  0.00     0.019 A 
ENDBRANCH   8  10
ENDBRANCH   1   7
BRANCH   4  17
ATOM     17  C   LIG d   1      14.711   6.241  34.728  0.00  0.00     0.727 A 
ATOM     18  N   LIG d   1      14.460   7.497  34.258  0.00  0.00    -0.060 NA
ATOM     19  C   LIG d   1      13.211   8.014  34.139  0.00  0.00     0.120 A 
ATOM     20  C   LIG d   1      12.104   7.235  34.511  0.00  0.00     0.043 A 
ATOM     21  C   LIG d   1      12.349   5.941  34.994  0.00  0.00     0.120 A 
ATOM     22  N   LIG d   1      13.627   5.491  35.084  0.00  0.00    -0.060 NA
ENDBRANCH   4  17
TORSDOF 3
ENDMDL
MODEL 9
REMARK NAME *****_MODEL9
REMARK  3 active torsions:
REMARK  status: ('A' for Active; 'I' for Inactive)
REMARK    1  A    between atoms: C_4  and  N_8 
REMARK       I    between atoms: N_8  and  C_9 
REMARK    2  A    between atoms: C_9  and  C_11 
REMARK    3  A    between atoms: N_14  and  C_17 
ROOT
ATOM      1  C   LIG d   1      19.470   5.829  34.625  0.00  0.00     0.085 C 
ATOM      2  C   LIG d   1      18.766   6.836  35.586  0.00  0.00     0.034 C 
ATOM      3  C   LIG d   1      19.295   8.272  35.349  0.00  0.00     0.120 C 
ATOM      4  N   LIG d   1      19.100   8.641  33.959  0.00  0.00    -0.183 N 
ATOM      5  C   LIG d   1      19.777   7.790  32.992  0.00  0.00     0.120 C 
ATOM      6  C   LIG d   1      19.319   6.313  33.147  0.00  0.00     0.034 C 
ENDROOT
BRANCH   1   7
ATOM      7  C   LIG d   1      18.972   4.440  34.847  0.00  0.00     0.255 C 
ATOM      8  N   LIG d   1      17.675   4.058  35.045  0.00  0.00    -0.212 NA
ATOM      9  O   LIG d   1      19.806   3.507  34.881  0.00  0.00    -0.270 OA
BRANCH   8  10
ATOM     10  C   LIG d   1      16.546   4.812  34.952  0.00  0.00     0.084 A 
ATOM     11  C   LIG d   1      16.246   5.594  33.815  0.00  0.00     0.015 A 
ATOM     12  C   LIG d   1      15.092   6.408  33.768  0.00  0.00    -0.020 A 
ATOM     13  C   LIG d   1      14.805   7.271  32.599  0.00  0.00     0.031 C 
ATOM     14  C   LIG d   1      14.207   6.390  34.869  0.00  0.00    -0.004 A 
ATOM     15  C   LIG d   1      14.461   5.564  35.978  0.00  0.00     0.001 A 
ATOM     16  C   LIG d   1      15.624   4.775  36.016  0.00  0.00     0.019 A 
ENDBRANCH   8  10
ENDBRANCH   1   7
BRANCH   4  17
ATOM     17  C   LIG d   1      18.283   9.700  33.585  0.00  0.00     0.727 A 
ATOM     18  N   LIG d   1      16.923   9.601  33.632  0.00  0.00    -0.060 NA
ATOM     19  C   LIG d   1      16.088  10.599  33.247  0.00  0.00     0.120 A 
ATOM     20  C   LIG d   1      16.628  11.806  32.776  0.00  0.00     0.043 A 
ATOM     21  C   LIG d   1      18.025  11.921  32.725  0.00  0.00     0.120 A 
ATOM     22  N   LIG d   1      18.797  10.879  33.127  0.00  0.00    -0.060 NA
ENDBRANCH   4  17
TORSDOF 3
ENDMDL
MODEL 10
REMARK NAME *****_MODEL10
REMARK  3 active torsions:
REMARK  status: ('A' for Active; 'I' for Inactive)
REMARK    1  A    between atoms: C_4  and  N_8 
REMARK       I    between atoms: N_8  and  C_9 
REMARK    2  A    between atoms: C_9  and  C_11 
REMARK    3  A    between atoms: N_14  and  C_17 
ROOT
ATOM      1  C   LIG d   1      18.716   5.644  34.587  0.00  0.00     0.085 C 
ATOM      2  C   LIG d   1      18.063   6.706  35.523  0.00  0.00     0.034 C 
ATOM      3  C   LIG d   1      18.754   8.081  35.350  0.00  0.00     0.120 C 
ATOM      4  N   LIG d   1      18.686   8.488  33.958  0.00  0.00    -0.183 N 
ATOM      5  C   LIG d   1      19.329   7.584  33.016  0.00  0.00     0.120 C 
ATOM      6  C   LIG d   1      18.710   6.162  33.113  0.00  0.00     0.034 C 
ENDROOT
BRANCH   1   7
ATOM      7  C   LIG d   1      18.062   4.312  34.748  0.00  0.00     0.255 C 
ATOM      8  N   LIG d   1      16.734   4.074  34.969  0.00  0.00    -0.212 NA
ATOM      9  O   LIG d   1      18.779   3.287  34.703  0.00  0.00    -0.270 OA
BRANCH   8  10
ATOM     10  C   LIG d   1      15.702   4.961  34.956  0.00  0.00     0.084 A 
ATOM     11  C   LIG d   1      15.465   5.836  33.874  0.00  0.00     0.015 A 
ATOM     12  C   LIG d   1      14.416   6.782  33.912  0.00  0.00    -0.020 A 
ATOM     13  C   LIG d   1      14.201   7.739  32.802  0.00  0.00     0.031 C 
ATOM     14  C   LIG d   1      13.567   6.805  35.040  0.00  0.00    -0.004 A 
ATOM     15  C   LIG d   1      13.751   5.892  36.093  0.00  0.00     0.001 A 
ATOM     16  C   LIG d   1      14.812   4.971  36.048  0.00  0.00     0.019 A 
ENDBRANCH   8  10
ENDBRANCH   1   7
BRANCH   4  17
ATOM     17  C   LIG d   1      18.011   9.633  33.557  0.00  0.00     0.727 A 
ATOM     18  N   LIG d   1      16.649   9.713  33.614  0.00  0.00    -0.060 NA
ATOM     19  C   LIG d   1      15.948  10.799  33.204  0.00  0.00     0.120 A 
ATOM     20  C   LIG d   1      16.635  11.912  32.694  0.00  0.00     0.043 A 
ATOM     21  C   LIG d   1      18.035  11.843  32.632  0.00  0.00     0.120 A 
ATOM     22  N   LIG d   1      18.669  10.722  33.062  0.00  0.00    -0.060 NA
ENDBRANCH   4  17
TORSDOF 3
ENDMDL
