MODEL 1
REMARK NAME /tmp/EM7ZH30_MODEL1
REMARK  0 active torsions:
REMARK  status: ('A' for Active; 'I' for Inactive)
ROOT
ATOM      1  C   LIG d   1      25.921  -9.540  17.017  0.00  0.00     0.105 C 
ATOM      2  C   LIG d   1      24.782  -8.542  16.879  0.00  0.00     0.024 C 
ATOM      3  O   LIG d   1      24.360 -18.248  17.444  0.00  0.00    -0.198 OA
ATOM      4  C   LIG d   1      25.295 -11.366  15.483  0.00  0.00     0.131 C 
ATOM      5  C   LIG d   1      26.565 -11.410  14.663  0.00  0.00     0.000 A 
ATOM      6  C   LIG d   1      28.926 -11.783  14.472  0.00  0.00    -0.000 A 
ATOM      7  C   LIG d   1      28.875 -11.472  13.129  0.00  0.00    -0.000 A 
ATOM      8  C   LIG d   1      27.671 -11.167  12.547  0.00  0.00    -0.000 A 
ATOM      9  C   LIG d   1      26.531 -11.097  13.311  0.00  0.00    -0.002 A 
ATOM     10  C   LIG d   1      24.745 -13.120  17.775  0.00  0.00     0.056 A 
ATOM     11  C   LIG d   1      25.582 -14.137  17.366  0.00  0.00     0.005 A 
ATOM     12  C   LIG d   1      25.112 -15.449  17.278  0.00  0.00     0.013 A 
ATOM     13  C   LIG d   1      23.788 -15.724  17.585  0.00  0.00     0.105 A 
ATOM     14  C   LIG d   1      23.147 -17.184  20.550  0.00  0.00     0.095 A 
ATOM     15  C   LIG d   1      24.229 -17.911  21.025  0.00  0.00     0.031 A 
ATOM     16  C   LIG d   1      24.913 -17.436  22.118  0.00  0.00     0.059 A 
ATOM     17  C   LIG d   1      24.530 -16.291  22.778  0.00  0.00     0.011 A 
ATOM     18  C   LIG d   1      23.461 -15.580  22.288  0.00  0.00     0.002 A 
ATOM     19  C   LIG d   1      22.780 -16.013  21.174  0.00  0.00     0.020 A 
ATOM     20  C   LIG d   1      22.937 -14.716  17.963  0.00  0.00     0.013 A 
ATOM     21  C   LIG d   1      23.418 -13.427  18.078  0.00  0.00     0.005 A 
ATOM     22  S   LIG d   1      23.237 -17.401  17.702  0.00  0.00     0.285 S 
ATOM     23  O   LIG d   1      22.025 -17.544  16.962  0.00  0.00    -0.198 OA
ATOM     24  N   LIG d   1      22.884 -17.628  19.264  0.00  0.00    -0.158 NA
ATOM     25 CL   LIG d   1      26.313 -18.299  22.662  0.00  0.00    -0.082 c 
ATOM     26  C   LIG d   1      25.174 -11.705  17.953  0.00  0.00     0.257 C 
ATOM     27  O   LIG d   1      25.211 -11.282  19.075  0.00  0.00    -0.267 OA
ATOM     28  N   LIG d   1      25.463 -10.933  16.873  0.00  0.00    -0.313 N 
ATOM     29  C   LIG d   1      25.321  -7.115  16.938  0.00  0.00     0.002 C 
ATOM     30  C   LIG d   1      27.765 -11.788  15.221  0.00  0.00    -0.002 A 
ENDROOT
TORSDOF 0
ENDMDL
MODEL 2
REMARK NAME /tmp/EM7ZH30_MODEL2
REMARK  0 active torsions:
REMARK  status: ('A' for Active; 'I' for Inactive)
ROOT
ATOM      1  C   LIG d   1      25.925  -9.543  17.018  0.00  0.00     0.105 C 
ATOM      2  C   LIG d   1      24.787  -8.544  16.881  0.00  0.00     0.024 C 
ATOM      3  O   LIG d   1      24.355 -18.250  17.443  0.00  0.00    -0.198 OA
ATOM      4  C   LIG d   1      25.296 -11.369  15.484  0.00  0.00     0.131 C 
ATOM      5  C   LIG d   1      26.566 -11.414  14.663  0.00  0.00     0.000 A 
ATOM      6  C   LIG d   1      28.927 -11.789  14.471  0.00  0.00    -0.000 A 
ATOM      7  C   LIG d   1      28.876 -11.478  13.128  0.00  0.00    -0.000 A 
ATOM      8  C   LIG d   1      27.671 -11.172  12.546  0.00  0.00    -0.000 A 
ATOM      9  C   LIG d   1      26.532 -11.100  13.311  0.00  0.00    -0.002 A 
ATOM     10  C   LIG d   1      24.746 -13.123  17.776  0.00  0.00     0.056 A 
ATOM     11  C   LIG d   1      25.581 -14.140  17.365  0.00  0.00     0.005 A 
ATOM     12  C   LIG d   1      25.110 -15.452  17.278  0.00  0.00     0.013 A 
ATOM     13  C   LIG d   1      23.785 -15.725  17.585  0.00  0.00     0.105 A 
ATOM     14  C   LIG d   1      23.145 -17.185  20.550  0.00  0.00     0.095 A 
ATOM     15  C   LIG d   1      24.226 -17.915  21.025  0.00  0.00     0.031 A 
ATOM     16  C   LIG d   1      24.910 -17.440  22.118  0.00  0.00     0.059 A 
ATOM     17  C   LIG d   1      24.529 -16.295  22.778  0.00  0.00     0.011 A 
ATOM     18  C   LIG d   1      23.461 -15.583  22.288  0.00  0.00     0.002 A 
ATOM     19  C   LIG d   1      22.779 -16.015  21.174  0.00  0.00     0.020 A 
ATOM     20  C   LIG d   1      22.936 -14.717  17.964  0.00  0.00     0.013 A 
ATOM     21  C   LIG d   1      23.418 -13.428  18.079  0.00  0.00     0.005 A 
ATOM     22  S   LIG d   1      23.233 -17.402  17.702  0.00  0.00     0.285 S 
ATOM     23  O   LIG d   1      22.021 -17.544  16.962  0.00  0.00    -0.198 OA
ATOM     24  N   LIG d   1      22.880 -17.629  19.264  0.00  0.00    -0.158 NA
ATOM     25 CL   LIG d   1      26.310 -18.304  22.660  0.00  0.00    -0.082 c 
ATOM     26  C   LIG d   1      25.176 -11.708  17.954  0.00  0.00     0.257 C 
ATOM     27  O   LIG d   1      25.214 -11.285  19.076  0.00  0.00    -0.267 OA
ATOM     28  N   LIG d   1      25.465 -10.936  16.873  0.00  0.00    -0.313 N 
ATOM     29  C   LIG d   1      25.328  -7.118  16.940  0.00  0.00     0.002 C 
ATOM     30  C   LIG d   1      27.766 -11.793  15.221  0.00  0.00    -0.002 A 
ENDROOT
TORSDOF 0
ENDMDL
MODEL 3
REMARK NAME /tmp/EM7ZH30_MODEL3
REMARK  0 active torsions:
REMARK  status: ('A' for Active; 'I' for Inactive)
ROOT
ATOM      1  C   LIG d   1      25.926  -9.544  17.020  0.00  0.00     0.105 C 
ATOM      2  C   LIG d   1      24.788  -8.545  16.881  0.00  0.00     0.024 C 
ATOM      3  O   LIG d   1      24.354 -18.250  17.442  0.00  0.00    -0.198 OA
ATOM      4  C   LIG d   1      25.299 -11.369  15.485  0.00  0.00     0.131 C 
ATOM      5  C   LIG d   1      26.570 -11.415  14.665  0.00  0.00     0.000 A 
ATOM      6  C   LIG d   1      28.931 -11.790  14.477  0.00  0.00    -0.000 A 
ATOM      7  C   LIG d   1      28.882 -11.479  13.134  0.00  0.00    -0.000 A 
ATOM      8  C   LIG d   1      27.679 -11.172  12.551  0.00  0.00    -0.000 A 
ATOM      9  C   LIG d   1      26.539 -11.101  13.313  0.00  0.00    -0.002 A 
ATOM     10  C   LIG d   1      24.745 -13.123  17.775  0.00  0.00     0.056 A 
ATOM     11  C   LIG d   1      25.581 -14.141  17.366  0.00  0.00     0.005 A 
ATOM     12  C   LIG d   1      25.110 -15.453  17.278  0.00  0.00     0.013 A 
ATOM     13  C   LIG d   1      23.784 -15.726  17.583  0.00  0.00     0.105 A 
ATOM     14  C   LIG d   1      23.138 -17.186  20.547  0.00  0.00     0.095 A 
ATOM     15  C   LIG d   1      24.219 -17.916  21.023  0.00  0.00     0.031 A 
ATOM     16  C   LIG d   1      24.902 -17.441  22.117  0.00  0.00     0.059 A 
ATOM     17  C   LIG d   1      24.520 -16.297  22.777  0.00  0.00     0.011 A 
ATOM     18  C   LIG d   1      23.452 -15.584  22.285  0.00  0.00     0.002 A 
ATOM     19  C   LIG d   1      22.772 -16.016  21.171  0.00  0.00     0.020 A 
ATOM     20  C   LIG d   1      22.934 -14.717  17.960  0.00  0.00     0.013 A 
ATOM     21  C   LIG d   1      23.416 -13.429  18.077  0.00  0.00     0.005 A 
ATOM     22  S   LIG d   1      23.231 -17.402  17.698  0.00  0.00     0.285 S 
ATOM     23  O   LIG d   1      22.020 -17.544  16.957  0.00  0.00    -0.198 OA
ATOM     24  N   LIG d   1      22.876 -17.630  19.260  0.00  0.00    -0.158 NA
ATOM     25 CL   LIG d   1      26.301 -18.306  22.662  0.00  0.00    -0.082 c 
ATOM     26  C   LIG d   1      25.175 -11.709  17.954  0.00  0.00     0.257 C 
ATOM     27  O   LIG d   1      25.211 -11.286  19.076  0.00  0.00    -0.267 OA
ATOM     28  N   LIG d   1      25.466 -10.937  16.874  0.00  0.00    -0.313 N 
ATOM     29  C   LIG d   1      25.329  -7.119  16.941  0.00  0.00     0.002 C 
ATOM     30  C   LIG d   1      27.769 -11.794  15.225  0.00  0.00    -0.002 A 
ENDROOT
TORSDOF 0
ENDMDL
MODEL 4
REMARK NAME /tmp/EM7ZH30_MODEL4
REMARK  0 active torsions:
REMARK  status: ('A' for Active; 'I' for Inactive)
ROOT
ATOM      1  C   LIG d   1      25.928  -9.547  17.018  0.00  0.00     0.105 C 
ATOM      2  C   LIG d   1      24.791  -8.547  16.881  0.00  0.00     0.024 C 
ATOM      3  O   LIG d   1      24.350 -18.252  17.442  0.00  0.00    -0.198 OA
ATOM      4  C   LIG d   1      25.298 -11.371  15.484  0.00  0.00     0.131 C 
ATOM      5  C   LIG d   1      26.568 -11.418  14.663  0.00  0.00     0.000 A 
ATOM      6  C   LIG d   1      28.929 -11.795  14.473  0.00  0.00    -0.000 A 
ATOM      7  C   LIG d   1      28.879 -11.484  13.130  0.00  0.00    -0.000 A 
ATOM      8  C   LIG d   1      27.675 -11.176  12.548  0.00  0.00    -0.000 A 
ATOM      9  C   LIG d   1      26.536 -11.104  13.311  0.00  0.00    -0.002 A 
ATOM     10  C   LIG d   1      24.745 -13.125  17.775  0.00  0.00     0.056 A 
ATOM     11  C   LIG d   1      25.580 -14.144  17.365  0.00  0.00     0.005 A 
ATOM     12  C   LIG d   1      25.108 -15.455  17.277  0.00  0.00     0.013 A 
ATOM     13  C   LIG d   1      23.782 -15.727  17.583  0.00  0.00     0.105 A 
ATOM     14  C   LIG d   1      23.138 -17.187  20.548  0.00  0.00     0.095 A 
ATOM     15  C   LIG d   1      24.219 -17.917  21.023  0.00  0.00     0.031 A 
ATOM     16  C   LIG d   1      24.903 -17.443  22.116  0.00  0.00     0.059 A 
ATOM     17  C   LIG d   1      24.522 -16.298  22.776  0.00  0.00     0.011 A 
ATOM     18  C   LIG d   1      23.455 -15.585  22.286  0.00  0.00     0.002 A 
ATOM     19  C   LIG d   1      22.773 -16.016  21.172  0.00  0.00     0.020 A 
ATOM     20  C   LIG d   1      22.934 -14.718  17.962  0.00  0.00     0.013 A 
ATOM     21  C   LIG d   1      23.416 -13.429  18.077  0.00  0.00     0.005 A 
ATOM     22  S   LIG d   1      23.228 -17.403  17.699  0.00  0.00     0.285 S 
ATOM     23  O   LIG d   1      22.017 -17.544  16.959  0.00  0.00    -0.198 OA
ATOM     24  N   LIG d   1      22.875 -17.630  19.261  0.00  0.00    -0.158 NA
ATOM     25 CL   LIG d   1      26.302 -18.309  22.660  0.00  0.00    -0.082 c 
ATOM     26  C   LIG d   1      25.177 -11.711  17.953  0.00  0.00     0.257 C 
ATOM     27  O   LIG d   1      25.214 -11.288  19.076  0.00  0.00    -0.267 OA
ATOM     28  N   LIG d   1      25.466 -10.940  16.873  0.00  0.00    -0.313 N 
ATOM     29  C   LIG d   1      25.333  -7.121  16.940  0.00  0.00     0.002 C 
ATOM     30  C   LIG d   1      27.768 -11.798  15.222  0.00  0.00    -0.002 A 
ENDROOT
TORSDOF 0
ENDMDL
MODEL 5
REMARK NAME /tmp/EM7ZH30_MODEL5
REMARK  0 active torsions:
REMARK  status: ('A' for Active; 'I' for Inactive)
ROOT
ATOM      1  C   LIG d   1      25.928  -9.546  17.018  0.00  0.00     0.105 C 
ATOM      2  C   LIG d   1      24.790  -8.546  16.879  0.00  0.00     0.024 C 
ATOM      3  O   LIG d   1      24.353 -18.251  17.443  0.00  0.00    -0.198 OA
ATOM      4  C   LIG d   1      25.300 -11.371  15.483  0.00  0.00     0.131 C 
ATOM      5  C   LIG d   1      26.570 -11.417  14.664  0.00  0.00     0.000 A 
ATOM      6  C   LIG d   1      28.932 -11.793  14.475  0.00  0.00    -0.000 A 
ATOM      7  C   LIG d   1      28.882 -11.482  13.132  0.00  0.00    -0.000 A 
ATOM      8  C   LIG d   1      27.679 -11.175  12.549  0.00  0.00    -0.000 A 
ATOM      9  C   LIG d   1      26.539 -11.103  13.312  0.00  0.00    -0.002 A 
ATOM     10  C   LIG d   1      24.746 -13.124  17.775  0.00  0.00     0.056 A 
ATOM     11  C   LIG d   1      25.581 -14.142  17.366  0.00  0.00     0.005 A 
ATOM     12  C   LIG d   1      25.110 -15.454  17.278  0.00  0.00     0.013 A 
ATOM     13  C   LIG d   1      23.784 -15.727  17.583  0.00  0.00     0.105 A 
ATOM     14  C   LIG d   1      23.139 -17.186  20.548  0.00  0.00     0.095 A 
ATOM     15  C   LIG d   1      24.220 -17.915  21.024  0.00  0.00     0.031 A 
ATOM     16  C   LIG d   1      24.903 -17.441  22.118  0.00  0.00     0.059 A 
ATOM     17  C   LIG d   1      24.521 -16.296  22.777  0.00  0.00     0.011 A 
ATOM     18  C   LIG d   1      23.453 -15.583  22.286  0.00  0.00     0.002 A 
ATOM     19  C   LIG d   1      22.773 -16.015  21.171  0.00  0.00     0.020 A 
ATOM     20  C   LIG d   1      22.935 -14.717  17.961  0.00  0.00     0.013 A 
ATOM     21  C   LIG d   1      23.417 -13.429  18.076  0.00  0.00     0.005 A 
ATOM     22  S   LIG d   1      23.231 -17.403  17.699  0.00  0.00     0.285 S 
ATOM     23  O   LIG d   1      22.020 -17.544  16.958  0.00  0.00    -0.198 OA
ATOM     24  N   LIG d   1      22.876 -17.630  19.261  0.00  0.00    -0.158 NA
ATOM     25 CL   LIG d   1      26.301 -18.306  22.662  0.00  0.00    -0.082 c 
ATOM     26  C   LIG d   1      25.176 -11.710  17.953  0.00  0.00     0.257 C 
ATOM     27  O   LIG d   1      25.213 -11.287  19.075  0.00  0.00    -0.267 OA
ATOM     28  N   LIG d   1      25.467 -10.938  16.873  0.00  0.00    -0.313 N 
ATOM     29  C   LIG d   1      25.331  -7.120  16.938  0.00  0.00     0.002 C 
ATOM     30  C   LIG d   1      27.770 -11.796  15.223  0.00  0.00    -0.002 A 
ENDROOT
TORSDOF 0
ENDMDL
MODEL 6
REMARK NAME /tmp/EM7ZH30_MODEL6
REMARK  0 active torsions:
REMARK  status: ('A' for Active; 'I' for Inactive)
ROOT
ATOM      1  C   LIG d   1      25.923  -9.540  17.016  0.00  0.00     0.105 C 
ATOM      2  C   LIG d   1      24.784  -8.542  16.878  0.00  0.00     0.024 C 
ATOM      3  O   LIG d   1      24.361 -18.247  17.449  0.00  0.00    -0.198 OA
ATOM      4  C   LIG d   1      25.296 -11.367  15.484  0.00  0.00     0.131 C 
ATOM      5  C   LIG d   1      26.566 -11.412  14.663  0.00  0.00     0.000 A 
ATOM      6  C   LIG d   1      28.928 -11.785  14.473  0.00  0.00    -0.000 A 
ATOM      7  C   LIG d   1      28.877 -11.475  13.130  0.00  0.00    -0.000 A 
ATOM      8  C   LIG d   1      27.673 -11.170  12.547  0.00  0.00    -0.000 A 
ATOM      9  C   LIG d   1      26.533 -11.099  13.311  0.00  0.00    -0.002 A 
ATOM     10  C   LIG d   1      24.747 -13.120  17.777  0.00  0.00     0.056 A 
ATOM     11  C   LIG d   1      25.583 -14.137  17.368  0.00  0.00     0.005 A 
ATOM     12  C   LIG d   1      25.113 -15.449  17.281  0.00  0.00     0.013 A 
ATOM     13  C   LIG d   1      23.789 -15.723  17.588  0.00  0.00     0.105 A 
ATOM     14  C   LIG d   1      23.148 -17.182  20.554  0.00  0.00     0.095 A 
ATOM     15  C   LIG d   1      24.230 -17.909  21.030  0.00  0.00     0.031 A 
ATOM     16  C   LIG d   1      24.913 -17.433  22.122  0.00  0.00     0.059 A 
ATOM     17  C   LIG d   1      24.531 -16.288  22.781  0.00  0.00     0.011 A 
ATOM     18  C   LIG d   1      23.462 -15.577  22.291  0.00  0.00     0.002 A 
ATOM     19  C   LIG d   1      22.781 -16.011  21.177  0.00  0.00     0.020 A 
ATOM     20  C   LIG d   1      22.938 -14.715  17.965  0.00  0.00     0.013 A 
ATOM     21  C   LIG d   1      23.419 -13.426  18.080  0.00  0.00     0.005 A 
ATOM     22  S   LIG d   1      23.238 -17.400  17.706  0.00  0.00     0.285 S 
ATOM     23  O   LIG d   1      22.026 -17.544  16.965  0.00  0.00    -0.198 OA
ATOM     24  N   LIG d   1      22.885 -17.627  19.268  0.00  0.00    -0.158 NA
ATOM     25 CL   LIG d   1      26.314 -18.296  22.667  0.00  0.00    -0.082 c 
ATOM     26  C   LIG d   1      25.176 -11.704  17.954  0.00  0.00     0.257 C 
ATOM     27  O   LIG d   1      25.213 -11.281  19.076  0.00  0.00    -0.267 OA
ATOM     28  N   LIG d   1      25.464 -10.934  16.873  0.00  0.00    -0.313 N 
ATOM     29  C   LIG d   1      25.323  -7.115  16.936  0.00  0.00     0.002 C 
ATOM     30  C   LIG d   1      27.767 -11.789  15.222  0.00  0.00    -0.002 A 
ENDROOT
TORSDOF 0
ENDMDL
MODEL 7
REMARK NAME /tmp/EM7ZH30_MODEL7
REMARK  0 active torsions:
REMARK  status: ('A' for Active; 'I' for Inactive)
ROOT
ATOM      1  C   LIG d   1      25.926  -9.545  17.016  0.00  0.00     0.105 C 
ATOM      2  C   LIG d   1      24.788  -8.545  16.878  0.00  0.00     0.024 C 
ATOM      3  O   LIG d   1      24.353 -18.250  17.444  0.00  0.00    -0.198 OA
ATOM      4  C   LIG d   1      25.297 -11.370  15.482  0.00  0.00     0.131 C 
ATOM      5  C   LIG d   1      26.568 -11.416  14.663  0.00  0.00     0.000 A 
ATOM      6  C   LIG d   1      28.929 -11.792  14.473  0.00  0.00    -0.000 A 
ATOM      7  C   LIG d   1      28.879 -11.482  13.130  0.00  0.00    -0.000 A 
ATOM      8  C   LIG d   1      27.675 -11.175  12.547  0.00  0.00    -0.000 A 
ATOM      9  C   LIG d   1      26.536 -11.103  13.310  0.00  0.00    -0.002 A 
ATOM     10  C   LIG d   1      24.744 -13.123  17.775  0.00  0.00     0.056 A 
ATOM     11  C   LIG d   1      25.580 -14.141  17.365  0.00  0.00     0.005 A 
ATOM     12  C   LIG d   1      25.108 -15.453  17.278  0.00  0.00     0.013 A 
ATOM     13  C   LIG d   1      23.783 -15.726  17.584  0.00  0.00     0.105 A 
ATOM     14  C   LIG d   1      23.139 -17.184  20.549  0.00  0.00     0.095 A 
ATOM     15  C   LIG d   1      24.220 -17.913  21.025  0.00  0.00     0.031 A 
ATOM     16  C   LIG d   1      24.903 -17.439  22.118  0.00  0.00     0.059 A 
ATOM     17  C   LIG d   1      24.522 -16.293  22.778  0.00  0.00     0.011 A 
ATOM     18  C   LIG d   1      23.454 -15.581  22.287  0.00  0.00     0.002 A 
ATOM     19  C   LIG d   1      22.773 -16.013  21.173  0.00  0.00     0.020 A 
ATOM     20  C   LIG d   1      22.934 -14.716  17.961  0.00  0.00     0.013 A 
ATOM     21  C   LIG d   1      23.416 -13.428  18.077  0.00  0.00     0.005 A 
ATOM     22  S   LIG d   1      23.230 -17.402  17.701  0.00  0.00     0.285 S 
ATOM     23  O   LIG d   1      22.019 -17.544  16.960  0.00  0.00    -0.198 OA
ATOM     24  N   LIG d   1      22.876 -17.628  19.263  0.00  0.00    -0.158 NA
ATOM     25 CL   LIG d   1      26.302 -18.303  22.663  0.00  0.00    -0.082 c 
ATOM     26  C   LIG d   1      25.175 -11.708  17.952  0.00  0.00     0.257 C 
ATOM     27  O   LIG d   1      25.212 -11.285  19.074  0.00  0.00    -0.267 OA
ATOM     28  N   LIG d   1      25.465 -10.938  16.872  0.00  0.00    -0.313 N 
ATOM     29  C   LIG d   1      25.329  -7.119  16.936  0.00  0.00     0.002 C 
ATOM     30  C   LIG d   1      27.767 -11.796  15.222  0.00  0.00    -0.002 A 
ENDROOT
TORSDOF 0
ENDMDL
MODEL 8
REMARK NAME /tmp/EM7ZH30_MODEL8
REMARK  0 active torsions:
REMARK  status: ('A' for Active; 'I' for Inactive)
ROOT
ATOM      1  C   LIG d   1      25.927  -9.544  17.015  0.00  0.00     0.105 C 
ATOM      2  C   LIG d   1      24.789  -8.545  16.875  0.00  0.00     0.024 C 
ATOM      3  O   LIG d   1      24.355 -18.250  17.446  0.00  0.00    -0.198 OA
ATOM      4  C   LIG d   1      25.300 -11.371  15.482  0.00  0.00     0.131 C 
ATOM      5  C   LIG d   1      26.571 -11.417  14.663  0.00  0.00     0.000 A 
ATOM      6  C   LIG d   1      28.932 -11.793  14.475  0.00  0.00    -0.000 A 
ATOM      7  C   LIG d   1      28.884 -11.483  13.132  0.00  0.00    -0.000 A 
ATOM      8  C   LIG d   1      27.680 -11.177  12.548  0.00  0.00    -0.000 A 
ATOM      9  C   LIG d   1      26.540 -11.104  13.311  0.00  0.00    -0.002 A 
ATOM     10  C   LIG d   1      24.745 -13.123  17.774  0.00  0.00     0.056 A 
ATOM     11  C   LIG d   1      25.581 -14.141  17.366  0.00  0.00     0.005 A 
ATOM     12  C   LIG d   1      25.110 -15.452  17.279  0.00  0.00     0.013 A 
ATOM     13  C   LIG d   1      23.785 -15.725  17.584  0.00  0.00     0.105 A 
ATOM     14  C   LIG d   1      23.139 -17.183  20.550  0.00  0.00     0.095 A 
ATOM     15  C   LIG d   1      24.219 -17.911  21.027  0.00  0.00     0.031 A 
ATOM     16  C   LIG d   1      24.902 -17.436  22.120  0.00  0.00     0.059 A 
ATOM     17  C   LIG d   1      24.519 -16.291  22.779  0.00  0.00     0.011 A 
ATOM     18  C   LIG d   1      23.452 -15.579  22.287  0.00  0.00     0.002 A 
ATOM     19  C   LIG d   1      22.772 -16.011  21.172  0.00  0.00     0.020 A 
ATOM     20  C   LIG d   1      22.935 -14.716  17.961  0.00  0.00     0.013 A 
ATOM     21  C   LIG d   1      23.417 -13.427  18.076  0.00  0.00     0.005 A 
ATOM     22  S   LIG d   1      23.232 -17.401  17.702  0.00  0.00     0.285 S 
ATOM     23  O   LIG d   1      22.021 -17.544  16.960  0.00  0.00    -0.198 OA
ATOM     24  N   LIG d   1      22.877 -17.627  19.263  0.00  0.00    -0.158 NA
ATOM     25 CL   LIG d   1      26.300 -18.300  22.666  0.00  0.00    -0.082 c 
ATOM     26  C   LIG d   1      25.176 -11.708  17.952  0.00  0.00     0.257 C 
ATOM     27  O   LIG d   1      25.212 -11.284  19.074  0.00  0.00    -0.267 OA
ATOM     28  N   LIG d   1      25.467 -10.937  16.871  0.00  0.00    -0.313 N 
ATOM     29  C   LIG d   1      25.330  -7.119  16.934  0.00  0.00     0.002 C 
ATOM     30  C   LIG d   1      27.770 -11.796  15.223  0.00  0.00    -0.002 A 
ENDROOT
TORSDOF 0
ENDMDL
MODEL 9
REMARK NAME /tmp/EM7ZH30_MODEL9
REMARK  0 active torsions:
REMARK  status: ('A' for Active; 'I' for Inactive)
ROOT
ATOM      1  C   LIG d   1      25.925  -9.539  17.024  0.00  0.00     0.105 C 
ATOM      2  C   LIG d   1      24.786  -8.541  16.884  0.00  0.00     0.024 C 
ATOM      3  O   LIG d   1      24.363 -18.247  17.444  0.00  0.00    -0.198 OA
ATOM      4  C   LIG d   1      25.301 -11.365  15.488  0.00  0.00     0.131 C 
ATOM      5  C   LIG d   1      26.573 -11.409  14.670  0.00  0.00     0.000 A 
ATOM      6  C   LIG d   1      28.935 -11.782  14.484  0.00  0.00    -0.000 A 
ATOM      7  C   LIG d   1      28.887 -11.471  13.141  0.00  0.00    -0.000 A 
ATOM      8  C   LIG d   1      27.684 -11.165  12.557  0.00  0.00    -0.000 A 
ATOM      9  C   LIG d   1      26.543 -11.095  13.318  0.00  0.00    -0.002 A 
ATOM     10  C   LIG d   1      24.747 -13.120  17.778  0.00  0.00     0.056 A 
ATOM     11  C   LIG d   1      25.585 -14.137  17.370  0.00  0.00     0.005 A 
ATOM     12  C   LIG d   1      25.115 -15.449  17.281  0.00  0.00     0.013 A 
ATOM     13  C   LIG d   1      23.790 -15.724  17.584  0.00  0.00     0.105 A 
ATOM     14  C   LIG d   1      23.143 -17.185  20.548  0.00  0.00     0.095 A 
ATOM     15  C   LIG d   1      24.224 -17.913  21.025  0.00  0.00     0.031 A 
ATOM     16  C   LIG d   1      24.905 -17.438  22.120  0.00  0.00     0.059 A 
ATOM     17  C   LIG d   1      24.521 -16.293  22.779  0.00  0.00     0.011 A 
ATOM     18  C   LIG d   1      23.453 -15.582  22.287  0.00  0.00     0.002 A 
ATOM     19  C   LIG d   1      22.775 -16.015  21.171  0.00  0.00     0.020 A 
ATOM     20  C   LIG d   1      22.939 -14.716  17.961  0.00  0.00     0.013 A 
ATOM     21  C   LIG d   1      23.419 -13.427  18.078  0.00  0.00     0.005 A 
ATOM     22  S   LIG d   1      23.239 -17.401  17.700  0.00  0.00     0.285 S 
ATOM     23  O   LIG d   1      22.029 -17.544  16.957  0.00  0.00    -0.198 OA
ATOM     24  N   LIG d   1      22.883 -17.629  19.261  0.00  0.00    -0.158 NA
ATOM     25 CL   LIG d   1      26.305 -18.300  22.666  0.00  0.00    -0.082 c 
ATOM     26  C   LIG d   1      25.176 -11.705  17.957  0.00  0.00     0.257 C 
ATOM     27  O   LIG d   1      25.210 -11.282  19.080  0.00  0.00    -0.267 OA
ATOM     28  N   LIG d   1      25.466 -10.933  16.878  0.00  0.00    -0.313 N 
ATOM     29  C   LIG d   1      25.325  -7.114  16.944  0.00  0.00     0.002 C 
ATOM     30  C   LIG d   1      27.772 -11.787  15.231  0.00  0.00    -0.002 A 
ENDROOT
TORSDOF 0
ENDMDL
MODEL 10
REMARK NAME /tmp/EM7ZH30_MODEL10
REMARK  0 active torsions:
REMARK  status: ('A' for Active; 'I' for Inactive)
ROOT
ATOM      1  C   LIG d   1      25.922  -9.542  17.020  0.00  0.00     0.105 C 
ATOM      2  C   LIG d   1      24.784  -8.543  16.882  0.00  0.00     0.024 C 
ATOM      3  O   LIG d   1      24.356 -18.249  17.442  0.00  0.00    -0.198 OA
ATOM      4  C   LIG d   1      25.296 -11.367  15.485  0.00  0.00     0.131 C 
ATOM      5  C   LIG d   1      26.566 -11.412  14.665  0.00  0.00     0.000 A 
ATOM      6  C   LIG d   1      28.928 -11.786  14.475  0.00  0.00    -0.000 A 
ATOM      7  C   LIG d   1      28.878 -11.475  13.133  0.00  0.00    -0.000 A 
ATOM      8  C   LIG d   1      27.674 -11.168  12.550  0.00  0.00    -0.000 A 
ATOM      9  C   LIG d   1      26.534 -11.098  13.313  0.00  0.00    -0.002 A 
ATOM     10  C   LIG d   1      24.744 -13.122  17.776  0.00  0.00     0.056 A 
ATOM     11  C   LIG d   1      25.580 -14.139  17.366  0.00  0.00     0.005 A 
ATOM     12  C   LIG d   1      25.110 -15.451  17.278  0.00  0.00     0.013 A 
ATOM     13  C   LIG d   1      23.785 -15.725  17.583  0.00  0.00     0.105 A 
ATOM     14  C   LIG d   1      23.142 -17.186  20.548  0.00  0.00     0.095 A 
ATOM     15  C   LIG d   1      24.223 -17.915  21.023  0.00  0.00     0.031 A 
ATOM     16  C   LIG d   1      24.906 -17.440  22.117  0.00  0.00     0.059 A 
ATOM     17  C   LIG d   1      24.523 -16.296  22.777  0.00  0.00     0.011 A 
ATOM     18  C   LIG d   1      23.455 -15.584  22.286  0.00  0.00     0.002 A 
ATOM     19  C   LIG d   1      22.775 -16.016  21.172  0.00  0.00     0.020 A 
ATOM     20  C   LIG d   1      22.935 -14.717  17.961  0.00  0.00     0.013 A 
ATOM     21  C   LIG d   1      23.416 -13.428  18.078  0.00  0.00     0.005 A 
ATOM     22  S   LIG d   1      23.233 -17.402  17.699  0.00  0.00     0.285 S 
ATOM     23  O   LIG d   1      22.022 -17.544  16.958  0.00  0.00    -0.198 OA
ATOM     24  N   LIG d   1      22.879 -17.630  19.261  0.00  0.00    -0.158 NA
ATOM     25 CL   LIG d   1      26.306 -18.304  22.661  0.00  0.00    -0.082 c 
ATOM     26  C   LIG d   1      25.173 -11.707  17.954  0.00  0.00     0.257 C 
ATOM     27  O   LIG d   1      25.210 -11.284  19.077  0.00  0.00    -0.267 OA
ATOM     28  N   LIG d   1      25.463 -10.935  16.874  0.00  0.00    -0.313 N 
ATOM     29  C   LIG d   1      25.324  -7.116  16.941  0.00  0.00     0.002 C 
ATOM     30  C   LIG d   1      27.766 -11.790  15.224  0.00  0.00    -0.002 A 
ENDROOT
TORSDOF 0
ENDMDL
