MODEL 1
REMARK NAME *****_MODEL1
REMARK  4 active torsions:
REMARK  status: ('A' for Active; 'I' for Inactive)
REMARK    1  A    between atoms: C_3  and  N_2 
REMARK    2  A    between atoms: N_29  and  C_5 
REMARK    3  A    between atoms: C_7  and  N_12 
REMARK    4  A    between atoms: C_9  and  O_10 
ROOT
ATOM      1  C   LIG d   1      18.102  10.279  32.450  0.00  0.00     0.139 C 
ATOM      2  C   LIG d   1      16.712   9.638  32.999  0.00  0.00     0.081 C 
ATOM      3  C   LIG d   1      16.214   9.247  31.468  0.00  0.00     0.209 C 
ATOM      4  O   LIG d   1      17.334   8.267  31.248  0.00  0.00    -0.319 OA
ATOM      5  C   LIG d   1      18.130   7.892  32.115  0.00  0.00     0.192 C 
ATOM      6  C   LIG d   1      19.276   7.269  31.285  0.00  0.00     0.057 C 
ATOM      7  C   LIG d   1      19.056   8.936  32.940  0.00  0.00     0.183 C 
ENDROOT
BRANCH   1   8
ATOM      8  N   LIG d   1      18.399  11.055  33.767  0.00  0.00    -0.267 NA
ATOM      9  C   LIG d   1      18.772  11.939  33.531  0.00  0.00     0.113 C 
ENDBRANCH   1   8
BRANCH   7  10
ATOM     10  O   LIG d   1      18.370   8.699  34.270  0.00  0.00    -0.348 OA
ATOM     11  C   LIG d   1      19.346   8.766  35.242  0.00  0.00     0.174 C 
ENDBRANCH   7  10
BRANCH   3  12
ATOM     12  N   LIG d   1      15.183   8.160  31.979  0.00  0.00    -0.304 N 
ATOM     13  C   LIG d   1      13.990   8.727  32.292  0.00  0.00     0.062 C 
ATOM     14  C   LIG d   1      13.316   9.872  31.903  0.00  0.00     0.017 C 
ATOM     15  C   LIG d   1      13.218   7.765  32.934  0.00  0.00     0.018 C 
ATOM     16  C   LIG d   1      11.944   9.907  31.888  0.00  0.00     0.002 C 
ATOM     17  C   LIG d   1      11.172   8.846  32.337  0.00  0.00     0.000 C 
ATOM     18  C   LIG d   1      11.858   7.851  33.017  0.00  0.00     0.002 C 
ATOM     19  C   LIG d   1      14.093   6.744  33.288  0.00  0.00     0.023 C 
ATOM     20  C   LIG d   1      14.074   5.923  34.413  0.00  0.00     0.057 C 
ATOM     21  C   LIG d   1      15.323   7.182  32.810  0.00  0.00     0.078 C 
ATOM     22  C   LIG d   1      15.198   5.207  34.814  0.00  0.00     0.008 C 
ATOM     23  C   LIG d   1      13.040   5.547  35.355  0.00  0.00     0.275 C 
ATOM     24  C   LIG d   1      16.370   5.431  34.120  0.00  0.00     0.017 C 
ATOM     25  C   LIG d   1      14.938   4.525  36.103  0.00  0.00     0.155 C 
ATOM     26  C   LIG d   1      17.673   4.973  34.270  0.00  0.00     0.017 C 
ATOM     27  C   LIG d   1      16.442   6.515  33.289  0.00  0.00     0.077 C 
ATOM     28  C   LIG d   1      18.239   4.073  35.138  0.00  0.00     0.002 C 
ATOM     29  C   LIG d   1      18.484   5.929  33.677  0.00  0.00     0.062 C 
ATOM     30  C   LIG d   1      19.610   4.115  35.340  0.00  0.00     0.000 C 
ATOM     31  C   LIG d   1      20.354   5.206  34.918  0.00  0.00     0.002 C 
ATOM     32  C   LIG d   1      19.860   5.932  33.840  0.00  0.00     0.017 C 
ATOM     33  N   LIG d   1      17.724   6.929  33.168  0.00  0.00    -0.306 N 
ATOM     34  N   LIG d   1      13.708   5.144  36.558  0.00  0.00    -0.229 NA
ATOM     35  O   LIG d   1      11.829   5.839  35.324  0.00  0.00    -0.266 OA
ENDBRANCH   3  12
TORSDOF 4
ENDMDL
MODEL 2
REMARK NAME *****_MODEL2
REMARK  4 active torsions:
REMARK  status: ('A' for Active; 'I' for Inactive)
REMARK    1  A    between atoms: C_3  and  N_2 
REMARK    2  A    between atoms: N_29  and  C_5 
REMARK    3  A    between atoms: C_7  and  N_12 
REMARK    4  A    between atoms: C_9  and  O_10 
ROOT
ATOM      1  C   LIG d   1      18.733  10.322  32.571  0.00  0.00     0.139 C 
ATOM      2  C   LIG d   1      17.231  10.009  33.108  0.00  0.00     0.081 C 
ATOM      3  C   LIG d   1      17.358   8.404  32.717  0.00  0.00     0.209 C 
ATOM      4  O   LIG d   1      18.463   8.149  33.706  0.00  0.00    -0.319 OA
ATOM      5  C   LIG d   1      18.858   8.956  34.553  0.00  0.00     0.192 C 
ATOM      6  C   LIG d   1      20.226   8.374  34.974  0.00  0.00     0.057 C 
ATOM      7  C   LIG d   1      19.407  10.427  34.149  0.00  0.00     0.183 C 
ENDROOT
BRANCH   1   8
ATOM      8  N   LIG d   1      18.510  11.861  32.492  0.00  0.00    -0.267 NA
ATOM      9  C   LIG d   1      18.810  12.175  31.605  0.00  0.00     0.113 C 
ENDBRANCH   1   8
BRANCH   7  10
ATOM     10  O   LIG d   1      18.257  11.179  34.789  0.00  0.00    -0.348 OA
ATOM     11  C   LIG d   1      18.193  10.768  36.104  0.00  0.00     0.174 C 
ENDBRANCH   7  10
BRANCH   3  12
ATOM     12  N   LIG d   1      16.195   7.975  33.701  0.00  0.00    -0.304 N 
ATOM     13  C   LIG d   1      16.273   6.653  34.003  0.00  0.00     0.062 C 
ATOM     14  C   LIG d   1      17.286   5.710  34.030  0.00  0.00     0.017 C 
ATOM     15  C   LIG d   1      15.110   6.304  34.681  0.00  0.00     0.018 C 
ATOM     16  C   LIG d   1      17.242   4.659  34.910  0.00  0.00     0.002 C 
ATOM     17  C   LIG d   1      16.156   4.438  35.745  0.00  0.00     0.000 C 
ATOM     18  C   LIG d   1      15.027   5.196  35.474  0.00  0.00     0.002 C 
ATOM     19  C   LIG d   1      14.216   7.349  34.475  0.00  0.00     0.023 C 
ATOM     20  C   LIG d   1      12.831   7.305  34.331  0.00  0.00     0.057 C 
ATOM     21  C   LIG d   1      14.934   8.249  33.695  0.00  0.00     0.078 C 
ATOM     22  C   LIG d   1      12.121   8.363  33.773  0.00  0.00     0.008 C 
ATOM     23  C   LIG d   1      11.822   6.335  34.701  0.00  0.00     0.275 C 
ATOM     24  C   LIG d   1      12.853   9.416  33.261  0.00  0.00     0.017 C 
ATOM     25  C   LIG d   1      10.694   7.998  33.622  0.00  0.00     0.155 C 
ATOM     26  C   LIG d   1      12.511  10.578  32.582  0.00  0.00     0.017 C 
ATOM     27  C   LIG d   1      14.197   9.248  33.073  0.00  0.00     0.077 C 
ATOM     28  C   LIG d   1      11.298  11.121  32.237  0.00  0.00     0.002 C 
ATOM     29  C   LIG d   1      13.635  10.941  31.856  0.00  0.00     0.062 C 
ATOM     30  C   LIG d   1      11.255  12.057  31.216  0.00  0.00     0.000 C 
ATOM     31  C   LIG d   1      12.338  12.230  30.368  0.00  0.00     0.002 C 
ATOM     32  C   LIG d   1      13.595  11.917  30.873  0.00  0.00     0.017 C 
ATOM     33  N   LIG d   1      14.637  10.055  32.081  0.00  0.00    -0.306 NA
ATOM     34  N   LIG d   1      10.697   6.565  33.843  0.00  0.00    -0.229 NA
ATOM     35  O   LIG d   1      11.970   5.280  35.347  0.00  0.00    -0.266 OA
ENDBRANCH   3  12
TORSDOF 4
ENDMDL
MODEL 3
REMARK NAME *****_MODEL3
REMARK  4 active torsions:
REMARK  status: ('A' for Active; 'I' for Inactive)
REMARK    1  A    between atoms: C_3  and  N_2 
REMARK    2  A    between atoms: N_29  and  C_5 
REMARK    3  A    between atoms: C_7  and  N_12 
REMARK    4  A    between atoms: C_9  and  O_10 
ROOT
ATOM      1  C   LIG d   1      18.773  10.229  32.572  0.00  0.00     0.139 C 
ATOM      2  C   LIG d   1      17.261   9.958  33.102  0.00  0.00     0.081 C 
ATOM      3  C   LIG d   1      17.349   8.348  32.722  0.00  0.00     0.209 C 
ATOM      4  O   LIG d   1      18.441   8.071  33.719  0.00  0.00    -0.319 OA
ATOM      5  C   LIG d   1      18.851   8.874  34.563  0.00  0.00     0.192 C 
ATOM      6  C   LIG d   1      20.202   8.259  34.996  0.00  0.00     0.057 C 
ATOM      7  C   LIG d   1      19.441  10.327  34.152  0.00  0.00     0.183 C 
ENDROOT
BRANCH   1   8
ATOM      8  N   LIG d   1      18.590  11.772  32.481  0.00  0.00    -0.267 NA
ATOM      9  C   LIG d   1      18.895  12.072  31.591  0.00  0.00     0.113 C 
ENDBRANCH   1   8
BRANCH   7  10
ATOM     10  O   LIG d   1      18.307  11.112  34.782  0.00  0.00    -0.348 OA
ATOM     11  C   LIG d   1      18.180  10.663  36.079  0.00  0.00     0.174 C 
ENDBRANCH   7  10
BRANCH   3  12
ATOM     12  N   LIG d   1      16.170   7.955  33.703  0.00  0.00    -0.304 N 
ATOM     13  C   LIG d   1      16.212   6.634  34.014  0.00  0.00     0.062 C 
ATOM     14  C   LIG d   1      17.201   5.666  34.053  0.00  0.00     0.017 C 
ATOM     15  C   LIG d   1      15.036   6.320  34.688  0.00  0.00     0.018 C 
ATOM     16  C   LIG d   1      17.125   4.623  34.941  0.00  0.00     0.002 C 
ATOM     17  C   LIG d   1      16.029   4.435  35.771  0.00  0.00     0.000 C 
ATOM     18  C   LIG d   1      14.921   5.219  35.488  0.00  0.00     0.002 C 
ATOM     19  C   LIG d   1      14.171   7.385  34.469  0.00  0.00     0.023 C 
ATOM     20  C   LIG d   1      12.786   7.375  34.316  0.00  0.00     0.057 C 
ATOM     21  C   LIG d   1      14.915   8.261  33.687  0.00  0.00     0.078 C 
ATOM     22  C   LIG d   1      12.106   8.447  33.747  0.00  0.00     0.008 C 
ATOM     23  C   LIG d   1      11.750   6.434  34.688  0.00  0.00     0.275 C 
ATOM     24  C   LIG d   1      12.867   9.477  33.232  0.00  0.00     0.017 C 
ATOM     25  C   LIG d   1      10.671   8.117  33.590  0.00  0.00     0.155 C 
ATOM     26  C   LIG d   1      12.558  10.642  32.543  0.00  0.00     0.017 C 
ATOM     27  C   LIG d   1      14.208   9.273  33.053  0.00  0.00     0.077 C 
ATOM     28  C   LIG d   1      11.362  11.212  32.187  0.00  0.00     0.002 C 
ATOM     29  C   LIG d   1      13.696  10.971  31.820  0.00  0.00     0.062 C 
ATOM     30  C   LIG d   1      11.348  12.143  31.159  0.00  0.00     0.000 C 
ATOM     31  C   LIG d   1      12.440  12.282  30.316  0.00  0.00     0.002 C 
ATOM     32  C   LIG d   1      13.686  11.941  30.830  0.00  0.00     0.017 C 
ATOM     33  N   LIG d   1      14.673  10.062  32.058  0.00  0.00    -0.306 NA
ATOM     34  N   LIG d   1      10.637   6.685  33.821  0.00  0.00    -0.229 NA
ATOM     35  O   LIG d   1      11.868   5.379  35.342  0.00  0.00    -0.266 OA
ENDBRANCH   3  12
TORSDOF 4
ENDMDL
MODEL 4
REMARK NAME *****_MODEL4
REMARK  4 active torsions:
REMARK  status: ('A' for Active; 'I' for Inactive)
REMARK    1  A    between atoms: C_3  and  N_2 
REMARK    2  A    between atoms: N_29  and  C_5 
REMARK    3  A    between atoms: C_7  and  N_12 
REMARK    4  A    between atoms: C_9  and  O_10 
ROOT
ATOM      1  C   LIG d   1      18.762  10.205  32.575  0.00  0.00     0.139 C 
ATOM      2  C   LIG d   1      17.249   9.949  33.109  0.00  0.00     0.081 C 
ATOM      3  C   LIG d   1      17.314   8.341  32.717  0.00  0.00     0.209 C 
ATOM      4  O   LIG d   1      18.407   8.043  33.707  0.00  0.00    -0.319 OA
ATOM      5  C   LIG d   1      18.831   8.834  34.555  0.00  0.00     0.192 C 
ATOM      6  C   LIG d   1      20.175   8.199  34.978  0.00  0.00     0.057 C 
ATOM      7  C   LIG d   1      19.437  10.283  34.153  0.00  0.00     0.183 C 
ENDROOT
BRANCH   1   8
ATOM      8  N   LIG d   1      18.598  11.751  32.497  0.00  0.00    -0.267 NA
ATOM      9  C   LIG d   1      18.981  12.064  31.642  0.00  0.00     0.113 C 
ENDBRANCH   1   8
BRANCH   7  10
ATOM     10  O   LIG d   1      18.316  11.077  34.793  0.00  0.00    -0.348 OA
ATOM     11  C   LIG d   1      18.214  10.646  36.099  0.00  0.00     0.174 C 
ENDBRANCH   7  10
BRANCH   3  12
ATOM     12  N   LIG d   1      16.134   7.956  33.699  0.00  0.00    -0.304 N 
ATOM     13  C   LIG d   1      16.172   6.636  34.015  0.00  0.00     0.062 C 
ATOM     14  C   LIG d   1      17.158   5.665  34.057  0.00  0.00     0.017 C 
ATOM     15  C   LIG d   1      14.996   6.328  34.690  0.00  0.00     0.018 C 
ATOM     16  C   LIG d   1      17.079   4.625  34.949  0.00  0.00     0.002 C 
ATOM     17  C   LIG d   1      15.983   4.444  35.780  0.00  0.00     0.000 C 
ATOM     18  C   LIG d   1      14.878   5.231  35.494  0.00  0.00     0.002 C 
ATOM     19  C   LIG d   1      14.134   7.395  34.467  0.00  0.00     0.023 C 
ATOM     20  C   LIG d   1      12.749   7.388  34.315  0.00  0.00     0.057 C 
ATOM     21  C   LIG d   1      14.881   8.265  33.682  0.00  0.00     0.078 C 
ATOM     22  C   LIG d   1      12.072   8.460  33.743  0.00  0.00     0.008 C 
ATOM     23  C   LIG d   1      11.710   6.452  34.691  0.00  0.00     0.275 C 
ATOM     24  C   LIG d   1      12.837   9.486  33.223  0.00  0.00     0.017 C 
ATOM     25  C   LIG d   1      10.636   8.135  33.587  0.00  0.00     0.155 C 
ATOM     26  C   LIG d   1      12.532  10.650  32.530  0.00  0.00     0.017 C 
ATOM     27  C   LIG d   1      14.177   9.278  33.044  0.00  0.00     0.077 C 
ATOM     28  C   LIG d   1      11.337  11.223  32.172  0.00  0.00     0.002 C 
ATOM     29  C   LIG d   1      13.670  10.973  31.806  0.00  0.00     0.062 C 
ATOM     30  C   LIG d   1      11.326  12.150  31.141  0.00  0.00     0.000 C 
ATOM     31  C   LIG d   1      12.418  12.283  30.297  0.00  0.00     0.002 C 
ATOM     32  C   LIG d   1      13.663  11.939  30.813  0.00  0.00     0.017 C 
ATOM     33  N   LIG d   1      14.645  10.062  32.047  0.00  0.00    -0.306 NA
ATOM     34  N   LIG d   1      10.597   6.704  33.823  0.00  0.00    -0.229 NA
ATOM     35  O   LIG d   1      11.825   5.400  35.348  0.00  0.00    -0.266 OA
ENDBRANCH   3  12
TORSDOF 4
ENDMDL
MODEL 5
REMARK NAME *****_MODEL5
REMARK  4 active torsions:
REMARK  status: ('A' for Active; 'I' for Inactive)
REMARK    1  A    between atoms: C_3  and  N_2 
REMARK    2  A    between atoms: N_29  and  C_5 
REMARK    3  A    between atoms: C_7  and  N_12 
REMARK    4  A    between atoms: C_9  and  O_10 
ROOT
ATOM      1  C   LIG d   1      18.941   9.921  31.399  0.00  0.00     0.139 C 
ATOM      2  C   LIG d   1      17.681   9.525  32.346  0.00  0.00     0.081 C 
ATOM      3  C   LIG d   1      17.819   7.918  31.966  0.00  0.00     0.209 C 
ATOM      4  O   LIG d   1      19.174   7.783  32.606  0.00  0.00    -0.319 OA
ATOM      5  C   LIG d   1      19.726   8.650  33.290  0.00  0.00     0.192 C 
ATOM      6  C   LIG d   1      21.199   8.183  33.316  0.00  0.00     0.057 C 
ATOM      7  C   LIG d   1      20.021  10.137  32.718  0.00  0.00     0.183 C 
ENDROOT
BRANCH   1   8
ATOM      8  N   LIG d   1      18.583  11.435  31.356  0.00  0.00    -0.267 NA
ATOM      9  C   LIG d   1      18.606  11.736  30.416  0.00  0.00     0.113 C 
ENDBRANCH   1   8
BRANCH   7  10
ATOM     10  O   LIG d   1      19.042  10.832  33.644  0.00  0.00    -0.348 OA
ATOM     11  C   LIG d   1      19.348  10.427  34.926  0.00  0.00     0.174 C 
ENDBRANCH   7  10
BRANCH   3  12
ATOM     12  N   LIG d   1      17.018   7.449  33.248  0.00  0.00    -0.304 N 
ATOM     13  C   LIG d   1      17.313   6.162  33.566  0.00  0.00     0.062 C 
ATOM     14  C   LIG d   1      18.389   5.320  33.347  0.00  0.00     0.017 C 
ATOM     15  C   LIG d   1      16.421   5.753  34.551  0.00  0.00     0.018 C 
ATOM     16  C   LIG d   1      18.697   4.328  34.244  0.00  0.00     0.002 C 
ATOM     17  C   LIG d   1      17.907   4.063  35.353  0.00  0.00     0.000 C 
ATOM     18  C   LIG d   1      16.673   4.695  35.376  0.00  0.00     0.002 C 
ATOM     19  C   LIG d   1      15.400   6.696  34.561  0.00  0.00     0.023 C 
ATOM     20  C   LIG d   1      14.040   6.516  34.806  0.00  0.00     0.057 C 
ATOM     21  C   LIG d   1      15.780   7.605  33.580  0.00  0.00     0.078 C 
ATOM     22  C   LIG d   1      13.098   7.467  34.427  0.00  0.00     0.008 C 
ATOM     23  C   LIG d   1      13.277   5.484  35.476  0.00  0.00     0.275 C 
ATOM     24  C   LIG d   1      13.548   8.547  33.694  0.00  0.00     0.017 C 
ATOM     25  C   LIG d   1      11.729   6.964  34.689  0.00  0.00     0.155 C 
ATOM     26  C   LIG d   1      12.914   9.626  33.093  0.00  0.00     0.017 C 
ATOM     27  C   LIG d   1      14.801   8.490  33.148  0.00  0.00     0.077 C 
ATOM     28  C   LIG d   1      11.603  10.032  33.076  0.00  0.00     0.002 C 
ATOM     29  C   LIG d   1      13.755  10.043  32.072  0.00  0.00     0.062 C 
ATOM     30  C   LIG d   1      11.186  10.893  32.072  0.00  0.00     0.000 C 
ATOM     31  C   LIG d   1      11.975  11.109  30.953  0.00  0.00     0.002 C 
ATOM     32  C   LIG d   1      13.348  10.945  31.102  0.00  0.00     0.017 C 
ATOM     33  N   LIG d   1      14.868   9.269  32.045  0.00  0.00    -0.306 NA
ATOM     34  N   LIG d   1      11.944   5.554  34.953  0.00  0.00    -0.229 NA
ATOM     35  O   LIG d   1      13.705   4.491  36.094  0.00  0.00    -0.266 OA
ENDBRANCH   3  12
TORSDOF 4
ENDMDL
MODEL 6
REMARK NAME *****_MODEL6
REMARK  4 active torsions:
REMARK  status: ('A' for Active; 'I' for Inactive)
REMARK    1  A    between atoms: C_3  and  N_2 
REMARK    2  A    between atoms: N_29  and  C_5 
REMARK    3  A    between atoms: C_7  and  N_12 
REMARK    4  A    between atoms: C_9  and  O_10 
ROOT
ATOM      1  C   LIG d   1      18.948  10.231  32.100  0.00  0.00     0.139 C 
ATOM      2  C   LIG d   1      17.520   9.939  32.819  0.00  0.00     0.081 C 
ATOM      3  C   LIG d   1      17.536   8.350  32.349  0.00  0.00     0.209 C 
ATOM      4  O   LIG d   1      18.752   8.018  33.171  0.00  0.00    -0.319 OA
ATOM      5  C   LIG d   1      19.283   8.773  33.990  0.00  0.00     0.192 C 
ATOM      6  C   LIG d   1      20.674   8.131  34.201  0.00  0.00     0.057 C 
ATOM      7  C   LIG d   1      19.827  10.244  33.577  0.00  0.00     0.183 C 
ENDROOT
BRANCH   1   8
ATOM      8  N   LIG d   1      18.771  11.777  32.115  0.00  0.00    -0.267 NA
ATOM      9  C   LIG d   1      18.984  12.125  31.215  0.00  0.00     0.113 C 
ENDBRANCH   1   8
BRANCH   7  10
ATOM     10  O   LIG d   1      18.799  10.999  34.396  0.00  0.00    -0.348 OA
ATOM     11  C   LIG d   1      19.028  10.682  35.718  0.00  0.00     0.174 C 
ENDBRANCH   7  10
BRANCH   3  12
ATOM     12  N   LIG d   1      16.499   7.912  33.461  0.00  0.00    -0.304 N 
ATOM     13  C   LIG d   1      16.659   6.605  33.792  0.00  0.00     0.062 C 
ATOM     14  C   LIG d   1      17.706   5.701  33.741  0.00  0.00     0.017 C 
ATOM     15  C   LIG d   1      15.586   6.237  34.597  0.00  0.00     0.018 C 
ATOM     16  C   LIG d   1      17.794   4.678  34.651  0.00  0.00     0.002 C 
ATOM     17  C   LIG d   1      16.810   4.446  35.601  0.00  0.00     0.000 C 
ATOM     18  C   LIG d   1      15.630   5.153  35.426  0.00  0.00     0.002 C 
ATOM     19  C   LIG d   1      14.636   7.241  34.454  0.00  0.00     0.023 C 
ATOM     20  C   LIG d   1      13.246   7.141  34.456  0.00  0.00     0.057 C 
ATOM     21  C   LIG d   1      15.233   8.139  33.578  0.00  0.00     0.078 C 
ATOM     22  C   LIG d   1      12.441   8.154  33.945  0.00  0.00     0.008 C 
ATOM     23  C   LIG d   1      12.319   6.148  34.958  0.00  0.00     0.275 C 
ATOM     24  C   LIG d   1      13.074   9.214  33.329  0.00  0.00     0.017 C 
ATOM     25  C   LIG d   1      11.021   7.732  33.953  0.00  0.00     0.155 C 
ATOM     26  C   LIG d   1      12.618  10.340  32.655  0.00  0.00     0.017 C 
ATOM     27  C   LIG d   1      14.397   9.090  33.006  0.00  0.00     0.077 C 
ATOM     28  C   LIG d   1      11.356  10.826  32.422  0.00  0.00     0.002 C 
ATOM     29  C   LIG d   1      13.646  10.719  31.805  0.00  0.00     0.062 C 
ATOM     30  C   LIG d   1      11.171  11.726  31.384  0.00  0.00     0.000 C 
ATOM     31  C   LIG d   1      12.153  11.911  30.423  0.00  0.00     0.002 C 
ATOM     32  C   LIG d   1      13.467  11.660  30.804  0.00  0.00     0.017 C 
ATOM     33  N   LIG d   1      14.700   9.879  31.951  0.00  0.00    -0.306 NA
ATOM     34  N   LIG d   1      11.104   6.308  34.214  0.00  0.00    -0.229 NA
ATOM     35  O   LIG d   1      12.575   5.121  35.615  0.00  0.00    -0.266 OA
ENDBRANCH   3  12
TORSDOF 4
ENDMDL
MODEL 7
REMARK NAME *****_MODEL7
REMARK  4 active torsions:
REMARK  status: ('A' for Active; 'I' for Inactive)
REMARK    1  A    between atoms: C_3  and  N_2 
REMARK    2  A    between atoms: N_29  and  C_5 
REMARK    3  A    between atoms: C_7  and  N_12 
REMARK    4  A    between atoms: C_9  and  O_10 
ROOT
ATOM      1  C   LIG d   1      18.974   9.894  31.390  0.00  0.00     0.139 C 
ATOM      2  C   LIG d   1      17.722   9.506  32.352  0.00  0.00     0.081 C 
ATOM      3  C   LIG d   1      17.826   7.903  31.948  0.00  0.00     0.209 C 
ATOM      4  O   LIG d   1      19.188   7.734  32.563  0.00  0.00    -0.319 OA
ATOM      5  C   LIG d   1      19.766   8.582  33.250  0.00  0.00     0.192 C 
ATOM      6  C   LIG d   1      21.231   8.089  33.246  0.00  0.00     0.057 C 
ATOM      7  C   LIG d   1      20.078  10.073  32.694  0.00  0.00     0.183 C 
ENDROOT
BRANCH   1   8
ATOM      8  N   LIG d   1      18.641  11.414  31.375  0.00  0.00    -0.267 NA
ATOM      9  C   LIG d   1      18.707  11.739  30.444  0.00  0.00     0.113 C 
ENDBRANCH   1   8
BRANCH   7  10
ATOM     10  O   LIG d   1      19.126  10.770  33.646  0.00  0.00    -0.348 OA
ATOM     11  C   LIG d   1      19.538  10.458  34.924  0.00  0.00     0.174 C 
ENDBRANCH   7  10
BRANCH   3  12
ATOM     12  N   LIG d   1      17.037   7.429  33.236  0.00  0.00    -0.304 N 
ATOM     13  C   LIG d   1      17.351   6.148  33.557  0.00  0.00     0.062 C 
ATOM     14  C   LIG d   1      18.437   5.319  33.337  0.00  0.00     0.017 C 
ATOM     15  C   LIG d   1      16.469   5.732  34.549  0.00  0.00     0.018 C 
ATOM     16  C   LIG d   1      18.762   4.335  34.237  0.00  0.00     0.002 C 
ATOM     17  C   LIG d   1      17.981   4.065  35.352  0.00  0.00     0.000 C 
ATOM     18  C   LIG d   1      16.739   4.681  35.378  0.00  0.00     0.002 C 
ATOM     19  C   LIG d   1      15.435   6.662  34.559  0.00  0.00     0.023 C 
ATOM     20  C   LIG d   1      14.079   6.465  34.812  0.00  0.00     0.057 C 
ATOM     21  C   LIG d   1      15.799   7.571  33.573  0.00  0.00     0.078 C 
ATOM     22  C   LIG d   1      13.123   7.401  34.433  0.00  0.00     0.008 C 
ATOM     23  C   LIG d   1      13.333   5.426  35.491  0.00  0.00     0.275 C 
ATOM     24  C   LIG d   1      13.555   8.483  33.693  0.00  0.00     0.017 C 
ATOM     25  C   LIG d   1      11.763   6.881  34.704  0.00  0.00     0.155 C 
ATOM     26  C   LIG d   1      12.905   9.552  33.090  0.00  0.00     0.017 C 
ATOM     27  C   LIG d   1      14.806   8.441  33.142  0.00  0.00     0.077 C 
ATOM     28  C   LIG d   1      11.588   9.940  33.078  0.00  0.00     0.002 C 
ATOM     29  C   LIG d   1      13.735   9.974  32.063  0.00  0.00     0.062 C 
ATOM     30  C   LIG d   1      11.155  10.791  32.072  0.00  0.00     0.000 C 
ATOM     31  C   LIG d   1      11.935  11.012  30.947  0.00  0.00     0.002 C 
ATOM     32  C   LIG d   1      13.311  10.867  31.091  0.00  0.00     0.017 C 
ATOM     33  N   LIG d   1      14.858   9.215  32.034  0.00  0.00    -0.306 NA
ATOM     34  N   LIG d   1      11.997   5.476  34.974  0.00  0.00    -0.229 NA
ATOM     35  O   LIG d   1      13.777   4.441  36.111  0.00  0.00    -0.266 OA
ENDBRANCH   3  12
TORSDOF 4
ENDMDL
MODEL 8
REMARK NAME *****_MODEL8
REMARK  4 active torsions:
REMARK  status: ('A' for Active; 'I' for Inactive)
REMARK    1  A    between atoms: C_3  and  N_2 
REMARK    2  A    between atoms: N_29  and  C_5 
REMARK    3  A    between atoms: C_7  and  N_12 
REMARK    4  A    between atoms: C_9  and  O_10 
ROOT
ATOM      1  C   LIG d   1      18.730  10.533  31.560  0.00  0.00     0.139 C 
ATOM      2  C   LIG d   1      17.978   9.186  32.074  0.00  0.00     0.081 C 
ATOM      3  C   LIG d   1      16.828  10.061  32.883  0.00  0.00     0.209 C 
ATOM      4  O   LIG d   1      16.269  10.673  31.627  0.00  0.00    -0.319 OA
ATOM      5  C   LIG d   1      16.584  10.348  30.478  0.00  0.00     0.192 C 
ATOM      6  C   LIG d   1      16.070  11.535  29.631  0.00  0.00     0.057 C 
ATOM      7  C   LIG d   1      18.119  10.410  29.958  0.00  0.00     0.183 C 
ENDROOT
BRANCH   1   8
ATOM      8  N   LIG d   1      20.048   9.794  31.185  0.00  0.00    -0.267 NA
ATOM      9  C   LIG d   1      20.806  10.279  31.593  0.00  0.00     0.113 C 
ENDBRANCH   1   8
BRANCH   7  10
ATOM     10  O   LIG d   1      18.271   8.908  29.819  0.00  0.00    -0.348 OA
ATOM     11  C   LIG d   1      19.136   8.689  28.768  0.00  0.00     0.174 C 
ENDBRANCH   7  10
BRANCH   3  12
ATOM     12  N   LIG d   1      15.800   8.858  32.916  0.00  0.00    -0.304 N 
ATOM     13  C   LIG d   1      14.551   9.291  33.225  0.00  0.00     0.062 C 
ATOM     14  C   LIG d   1      13.870  10.490  33.106  0.00  0.00     0.017 C 
ATOM     15  C   LIG d   1      13.758   8.170  33.452  0.00  0.00     0.018 C 
ATOM     16  C   LIG d   1      12.510  10.509  32.926  0.00  0.00     0.002 C 
ATOM     17  C   LIG d   1      11.745   9.351  32.941  0.00  0.00     0.000 C 
ATOM     18  C   LIG d   1      12.396   8.209  33.381  0.00  0.00     0.002 C 
ATOM     19  C   LIG d   1      14.636   7.102  33.601  0.00  0.00     0.023 C 
ATOM     20  C   LIG d   1      14.525   5.983  34.423  0.00  0.00     0.057 C 
ATOM     21  C   LIG d   1      15.890   7.679  33.434  0.00  0.00     0.078 C 
ATOM     22  C   LIG d   1      15.629   5.196  34.737  0.00  0.00     0.008 C 
ATOM     23  C   LIG d   1      13.408   5.331  35.072  0.00  0.00     0.275 C 
ATOM     24  C   LIG d   1      16.862   5.632  34.296  0.00  0.00     0.017 C 
ATOM     25  C   LIG d   1      15.253   4.158  35.724  0.00  0.00     0.155 C 
ATOM     26  C   LIG d   1      18.159   5.168  34.471  0.00  0.00     0.017 C 
ATOM     27  C   LIG d   1      16.977   6.915  33.836  0.00  0.00     0.077 C 
ATOM     28  C   LIG d   1      18.664   4.058  35.102  0.00  0.00     0.002 C 
ATOM     29  C   LIG d   1      18.986   6.268  34.294  0.00  0.00     0.062 C 
ATOM     30  C   LIG d   1      19.997   4.057  35.482  0.00  0.00     0.000 C 
ATOM     31  C   LIG d   1      20.730   5.234  35.498  0.00  0.00     0.002 C 
ATOM     32  C   LIG d   1      20.331   6.241  34.626  0.00  0.00     0.017 C 
ATOM     33  N   LIG d   1      18.241   7.364  34.007  0.00  0.00    -0.306 NA
ATOM     34  N   LIG d   1      13.948   4.597  36.179  0.00  0.00    -0.229 NA
ATOM     35  O   LIG d   1      12.196   5.602  34.973  0.00  0.00    -0.266 OA
ENDBRANCH   3  12
TORSDOF 4
ENDMDL
MODEL 9
REMARK NAME *****_MODEL9
REMARK  4 active torsions:
REMARK  status: ('A' for Active; 'I' for Inactive)
REMARK    1  A    between atoms: C_3  and  N_2 
REMARK    2  A    between atoms: N_29  and  C_5 
REMARK    3  A    between atoms: C_7  and  N_12 
REMARK    4  A    between atoms: C_9  and  O_10 
ROOT
ATOM      1  C   LIG d   1      19.153   9.763  32.523  0.00  0.00     0.139 C 
ATOM      2  C   LIG d   1      17.647   9.682  33.131  0.00  0.00     0.081 C 
ATOM      3  C   LIG d   1      17.431   8.144  32.557  0.00  0.00     0.209 C 
ATOM      4  O   LIG d   1      18.510   7.561  33.428  0.00  0.00    -0.319 OA
ATOM      5  C   LIG d   1      19.100   8.167  34.328  0.00  0.00     0.192 C 
ATOM      6  C   LIG d   1      20.343   7.284  34.581  0.00  0.00     0.057 C 
ATOM      7  C   LIG d   1      19.912   9.542  34.049  0.00  0.00     0.183 C 
ENDROOT
BRANCH   1   8
ATOM      8  N   LIG d   1      19.238  11.314  32.631  0.00  0.00    -0.267 NA
ATOM      9  C   LIG d   1      19.535  11.672  31.759  0.00  0.00     0.113 C 
ENDBRANCH   1   8
BRANCH   7  10
ATOM     10  O   LIG d   1      18.969  10.418  34.851  0.00  0.00    -0.348 OA
ATOM     11  C   LIG d   1      19.653  10.814  35.980  0.00  0.00     0.174 C 
ENDBRANCH   7  10
BRANCH   3  12
ATOM     12  N   LIG d   1      16.256   7.830  33.570  0.00  0.00    -0.304 N 
ATOM     13  C   LIG d   1      16.226   6.511  33.891  0.00  0.00     0.062 C 
ATOM     14  C   LIG d   1      17.155   5.485  33.913  0.00  0.00     0.017 C 
ATOM     15  C   LIG d   1      15.051   6.273  34.598  0.00  0.00     0.018 C 
ATOM     16  C   LIG d   1      17.039   4.454  34.811  0.00  0.00     0.002 C 
ATOM     17  C   LIG d   1      15.956   4.339  35.671  0.00  0.00     0.000 C 
ATOM     18  C   LIG d   1      14.891   5.187  35.409  0.00  0.00     0.002 C 
ATOM     19  C   LIG d   1      14.247   7.388  34.392  0.00  0.00     0.023 C 
ATOM     20  C   LIG d   1      12.860   7.460  34.275  0.00  0.00     0.057 C 
ATOM     21  C   LIG d   1      15.022   8.211  33.584  0.00  0.00     0.078 C 
ATOM     22  C   LIG d   1      12.232   8.567  33.714  0.00  0.00     0.008 C 
ATOM     23  C   LIG d   1      11.779   6.586  34.680  0.00  0.00     0.275 C 
ATOM     24  C   LIG d   1      13.040   9.546  33.171  0.00  0.00     0.017 C 
ATOM     25  C   LIG d   1      10.776   8.324  33.596  0.00  0.00     0.155 C 
ATOM     26  C   LIG d   1      12.785  10.723  32.481  0.00  0.00     0.017 C 
ATOM     27  C   LIG d   1      14.361   9.260  32.960  0.00  0.00     0.077 C 
ATOM     28  C   LIG d   1      11.616  11.363  32.150  0.00  0.00     0.002 C 
ATOM     29  C   LIG d   1      13.921  10.978  31.727  0.00  0.00     0.062 C 
ATOM     30  C   LIG d   1      11.632  12.285  31.115  0.00  0.00     0.000 C 
ATOM     31  C   LIG d   1      12.708  12.352  30.244  0.00  0.00     0.002 C 
ATOM     32  C   LIG d   1      13.944  11.939  30.729  0.00  0.00     0.017 C 
ATOM     33  N   LIG d   1      14.848  10.013  31.947  0.00  0.00    -0.306 NA
ATOM     34  N   LIG d   1      10.661   6.899  33.840  0.00  0.00    -0.229 NA
ATOM     35  O   LIG d   1      11.850   5.531  35.339  0.00  0.00    -0.266 OA
ENDBRANCH   3  12
TORSDOF 4
ENDMDL
MODEL 10
REMARK NAME *****_MODEL10
REMARK  4 active torsions:
REMARK  status: ('A' for Active; 'I' for Inactive)
REMARK    1  A    between atoms: C_3  and  N_2 
REMARK    2  A    between atoms: N_29  and  C_5 
REMARK    3  A    between atoms: C_7  and  N_12 
REMARK    4  A    between atoms: C_9  and  O_10 
ROOT
ATOM      1  C   LIG d   1      18.442   9.922  30.900  0.00  0.00     0.139 C 
ATOM      2  C   LIG d   1      17.296   9.469  31.960  0.00  0.00     0.081 C 
ATOM      3  C   LIG d   1      17.621   7.862  31.723  0.00  0.00     0.209 C 
ATOM      4  O   LIG d   1      19.014   7.961  32.282  0.00  0.00    -0.319 OA
ATOM      5  C   LIG d   1      19.484   8.954  32.846  0.00  0.00     0.192 C 
ATOM      6  C   LIG d   1      21.005   8.678  32.819  0.00  0.00     0.057 C 
ATOM      7  C   LIG d   1      19.553  10.402  32.120  0.00  0.00     0.183 C 
ENDROOT
BRANCH   1   8
ATOM      8  N   LIG d   1      17.889  11.368  30.741  0.00  0.00    -0.267 NA
ATOM      9  C   LIG d   1      17.765  11.552  29.779  0.00  0.00     0.113 C 
ENDBRANCH   1   8
BRANCH   7  10
ATOM     10  O   LIG d   1      18.543  11.059  33.040  0.00  0.00    -0.348 OA
ATOM     11  C   LIG d   1      18.974  10.838  34.331  0.00  0.00     0.174 C 
ENDBRANCH   7  10
BRANCH   3  12
ATOM     12  N   LIG d   1      16.957   7.428  33.092  0.00  0.00    -0.304 N 
ATOM     13  C   LIG d   1      17.383   6.196  33.474  0.00  0.00     0.062 C 
ATOM     14  C   LIG d   1      18.509   5.429  33.231  0.00  0.00     0.017 C 
ATOM     15  C   LIG d   1      16.601   5.792  34.551  0.00  0.00     0.018 C 
ATOM     16  C   LIG d   1      18.963   4.535  34.167  0.00  0.00     0.002 C 
ATOM     17  C   LIG d   1      18.280   4.292  35.350  0.00  0.00     0.000 C 
ATOM     18  C   LIG d   1      17.002   4.823  35.425  0.00  0.00     0.002 C 
ATOM     19  C   LIG d   1      15.507   6.649  34.575  0.00  0.00     0.023 C 
ATOM     20  C   LIG d   1      14.189   6.379  34.936  0.00  0.00     0.057 C 
ATOM     21  C   LIG d   1      15.737   7.509  33.507  0.00  0.00     0.078 C 
ATOM     22  C   LIG d   1      13.144   7.221  34.567  0.00  0.00     0.008 C 
ATOM     23  C   LIG d   1      13.566   5.343  35.733  0.00  0.00     0.275 C 
ATOM     24  C   LIG d   1      13.447   8.275  33.729  0.00  0.00     0.017 C 
ATOM     25  C   LIG d   1      11.846   6.631  34.968  0.00  0.00     0.155 C 
ATOM     26  C   LIG d   1      12.682   9.252  33.106  0.00  0.00     0.017 C 
ATOM     27  C   LIG d   1      14.658   8.278  33.093  0.00  0.00     0.077 C 
ATOM     28  C   LIG d   1      11.343   9.550  33.162  0.00  0.00     0.002 C 
ATOM     29  C   LIG d   1      13.409   9.657  31.996  0.00  0.00     0.062 C 
ATOM     30  C   LIG d   1      10.784  10.297  32.137  0.00  0.00     0.000 C 
ATOM     31  C   LIG d   1      11.469  10.491  30.947  0.00  0.00     0.002 C 
ATOM     32  C   LIG d   1      12.858  10.449  31.001  0.00  0.00     0.017 C 
ATOM     33  N   LIG d   1      14.579   8.975  31.936  0.00  0.00    -0.306 NA
ATOM     34  N   LIG d   1      12.198   5.267  35.311  0.00  0.00    -0.229 NA
ATOM     35  O   LIG d   1      14.121   4.436  36.383  0.00  0.00    -0.266 OA
ENDBRANCH   3  12
TORSDOF 4
ENDMDL
