MODEL 1
REMARK NAME *****_MODEL1
REMARK  3 active torsions:
REMARK  status: ('A' for Active; 'I' for Inactive)
REMARK    1  A    between atoms: C_5  and  N_8 
REMARK       I    between atoms: N_8  and  C_9 
REMARK    2  A    between atoms: C_9  and  C_11 
REMARK    3  A    between atoms: N_14  and  C_17 
ROOT
ATOM      1  C   LIG d   1      25.493 -10.564  17.877  0.00  0.00     0.085 C 
ATOM      2  C   LIG d   1      25.015 -10.139  19.297  0.00  0.00     0.034 C 
ATOM      3  C   LIG d   1      25.174  -8.609  19.495  0.00  0.00     0.120 C 
ATOM      4  N   LIG d   1      24.438  -7.911  18.454  0.00  0.00    -0.183 N 
ATOM      5  C   LIG d   1      24.857  -8.201  17.089  0.00  0.00     0.120 C 
ATOM      6  C   LIG d   1      24.736  -9.723  16.801  0.00  0.00     0.034 C 
ENDROOT
BRANCH   1   7
ATOM      7  C   LIG d   1      25.346 -12.032  17.647  0.00  0.00     0.255 C 
ATOM      8  N   LIG d   1      25.690 -12.716  16.515  0.00  0.00    -0.212 NA
ATOM      9  O   LIG d   1      24.824 -12.731  18.545  0.00  0.00    -0.270 OA
BRANCH   8  10
ATOM     10  C   LIG d   1      26.446 -12.300  15.457  0.00  0.00     0.086 A 
ATOM     11  C   LIG d   1      25.885 -11.738  14.289  0.00  0.00     0.049 A 
ATOM     12  C   LIG d   1      26.698 -11.288  13.231  0.00  0.00     0.138 A 
ATOM     13  C   LIG d   1      28.107 -11.374  13.325  0.00  0.00     0.006 A 
ATOM     14  F   LIG d   1      26.109 -10.788  12.176  0.00  0.00    -0.204 F 
ATOM     15  C   LIG d   1      28.991 -10.922  12.219  0.00  0.00     0.033 C 
ATOM     16  C   LIG d   1      28.670 -11.922  14.502  0.00  0.00    -0.001 A 
ATOM     17  C   LIG d   1      27.850 -12.368  15.559  0.00  0.00     0.019 A 
ENDBRANCH   8  10
ENDBRANCH   1   7
BRANCH   4  18
ATOM     18  C   LIG d   1      23.369  -7.081  18.745  0.00  0.00     0.727 A 
ATOM     19  N   LIG d   1      23.507  -5.990  19.553  0.00  0.00    -0.060 NA
ATOM     20  C   LIG d   1      22.474  -5.177  19.889  0.00  0.00     0.120 A 
ATOM     21  C   LIG d   1      21.190  -5.450  19.390  0.00  0.00     0.043 A 
ATOM     22  C   LIG d   1      21.042  -6.563  18.549  0.00  0.00     0.120 A 
ATOM     23  N   LIG d   1      22.121  -7.332  18.256  0.00  0.00    -0.060 NA
ENDBRANCH   4  18
TORSDOF 3
ENDMDL
MODEL 2
REMARK NAME *****_MODEL2
REMARK  3 active torsions:
REMARK  status: ('A' for Active; 'I' for Inactive)
REMARK    1  A    between atoms: C_5  and  N_8 
REMARK       I    between atoms: N_8  and  C_9 
REMARK    2  A    between atoms: C_9  and  C_11 
REMARK    3  A    between atoms: N_14  and  C_17 
ROOT
ATOM      1  C   LIG d   1      25.479 -10.537  17.972  0.00  0.00     0.085 C 
ATOM      2  C   LIG d   1      25.014 -10.086  19.389  0.00  0.00     0.034 C 
ATOM      3  C   LIG d   1      25.176  -8.554  19.558  0.00  0.00     0.120 C 
ATOM      4  N   LIG d   1      24.431  -7.874  18.511  0.00  0.00    -0.183 N 
ATOM      5  C   LIG d   1      24.837  -8.189  17.148  0.00  0.00     0.120 C 
ATOM      6  C   LIG d   1      24.712  -9.715  16.888  0.00  0.00     0.034 C 
ENDROOT
BRANCH   1   7
ATOM      7  C   LIG d   1      25.329 -12.010  17.770  0.00  0.00     0.255 C 
ATOM      8  N   LIG d   1      25.628 -12.708  16.636  0.00  0.00    -0.212 NA
ATOM      9  O   LIG d   1      24.848 -12.697  18.700  0.00  0.00    -0.270 OA
BRANCH   8  10
ATOM     10  C   LIG d   1      26.337 -12.306  15.540  0.00  0.00     0.086 A 
ATOM     11  C   LIG d   1      25.728 -11.736  14.400  0.00  0.00     0.049 A 
ATOM     12  C   LIG d   1      26.494 -11.299  13.304  0.00  0.00     0.138 A 
ATOM     13  C   LIG d   1      27.905 -11.407  13.328  0.00  0.00     0.006 A 
ATOM     14  F   LIG d   1      25.862 -10.791  12.278  0.00  0.00    -0.204 F 
ATOM     15  C   LIG d   1      28.739 -10.971  12.178  0.00  0.00     0.033 C 
ATOM     16  C   LIG d   1      28.517 -11.963  14.476  0.00  0.00    -0.001 A 
ATOM     17  C   LIG d   1      27.744 -12.395  15.573  0.00  0.00     0.019 A 
ENDBRANCH   8  10
ENDBRANCH   1   7
BRANCH   4  18
ATOM     18  C   LIG d   1      23.365  -7.037  18.796  0.00  0.00     0.727 A 
ATOM     19  N   LIG d   1      23.493  -5.975  19.643  0.00  0.00    -0.060 NA
ATOM     20  C   LIG d   1      22.461  -5.158  19.974  0.00  0.00     0.120 A 
ATOM     21  C   LIG d   1      21.189  -5.396  19.428  0.00  0.00     0.043 A 
ATOM     22  C   LIG d   1      21.052  -6.480  18.547  0.00  0.00     0.120 A 
ATOM     23  N   LIG d   1      22.129  -7.254  18.262  0.00  0.00    -0.060 NA
ENDBRANCH   4  18
TORSDOF 3
ENDMDL
MODEL 3
REMARK NAME *****_MODEL3
REMARK  3 active torsions:
REMARK  status: ('A' for Active; 'I' for Inactive)
REMARK    1  A    between atoms: C_5  and  N_8 
REMARK       I    between atoms: N_8  and  C_9 
REMARK    2  A    between atoms: C_9  and  C_11 
REMARK    3  A    between atoms: N_14  and  C_17 
ROOT
ATOM      1  C   LIG d   1      25.599 -10.615  17.892  0.00  0.00     0.085 C 
ATOM      2  C   LIG d   1      25.037 -10.253  19.299  0.00  0.00     0.034 C 
ATOM      3  C   LIG d   1      25.175  -8.733  19.571  0.00  0.00     0.120 C 
ATOM      4  N   LIG d   1      24.495  -7.994  18.519  0.00  0.00    -0.183 N 
ATOM      5  C   LIG d   1      24.993  -8.224  17.170  0.00  0.00     0.120 C 
ATOM      6  C   LIG d   1      24.899  -9.732  16.811  0.00  0.00     0.034 C 
ENDROOT
BRANCH   1   7
ATOM      7  C   LIG d   1      25.475 -12.073  17.592  0.00  0.00     0.255 C 
ATOM      8  N   LIG d   1      25.891 -12.707  16.456  0.00  0.00    -0.212 NA
ATOM      9  O   LIG d   1      24.905 -12.811  18.428  0.00  0.00    -0.270 OA
BRANCH   8  10
ATOM     10  C   LIG d   1      26.707 -12.244  15.464  0.00  0.00     0.086 A 
ATOM     11  C   LIG d   1      28.116 -12.291  15.546  0.00  0.00     0.049 A 
ATOM     12  C   LIG d   1      28.926 -11.837  14.488  0.00  0.00     0.138 A 
ATOM     13  C   LIG d   1      28.339 -11.336  13.302  0.00  0.00     0.006 A 
ATOM     14  F   LIG d   1      30.223 -11.901  14.638  0.00  0.00    -0.204 F 
ATOM     15  C   LIG d   1      29.167 -10.834  12.175  0.00  0.00     0.033 C 
ATOM     16  C   LIG d   1      26.927 -11.304  13.212  0.00  0.00    -0.001 A 
ATOM     17  C   LIG d   1      26.122 -11.763  14.274  0.00  0.00     0.019 A 
ENDBRANCH   8  10
ENDBRANCH   1   7
BRANCH   4  18
ATOM     18  C   LIG d   1      23.406  -7.181  18.783  0.00  0.00     0.727 A 
ATOM     19  N   LIG d   1      23.510  -6.076  19.578  0.00  0.00    -0.060 NA
ATOM     20  C   LIG d   1      22.456  -5.280  19.886  0.00  0.00     0.120 A 
ATOM     21  C   LIG d   1      21.185  -5.585  19.374  0.00  0.00     0.043 A 
ATOM     22  C   LIG d   1      21.072  -6.714  18.546  0.00  0.00     0.120 A 
ATOM     23  N   LIG d   1      22.170  -7.464  18.280  0.00  0.00    -0.060 NA
ENDBRANCH   4  18
TORSDOF 3
ENDMDL
MODEL 4
REMARK NAME *****_MODEL4
REMARK  3 active torsions:
REMARK  status: ('A' for Active; 'I' for Inactive)
REMARK    1  A    between atoms: C_5  and  N_8 
REMARK       I    between atoms: N_8  and  C_9 
REMARK    2  A    between atoms: C_9  and  C_11 
REMARK    3  A    between atoms: N_14  and  C_17 
ROOT
ATOM      1  C   LIG d   1      24.602  -9.054  15.252  0.00  0.00     0.085 C 
ATOM      2  C   LIG d   1      24.050  -9.661  16.576  0.00  0.00     0.034 C 
ATOM      3  C   LIG d   1      24.536  -8.842  17.800  0.00  0.00     0.120 C 
ATOM      4  N   LIG d   1      24.130  -7.455  17.640  0.00  0.00    -0.183 N 
ATOM      5  C   LIG d   1      24.649  -6.784  16.456  0.00  0.00     0.120 C 
ATOM      6  C   LIG d   1      24.214  -7.544  15.173  0.00  0.00     0.034 C 
ENDROOT
BRANCH   1   7
ATOM      7  C   LIG d   1      24.147  -9.814  14.049  0.00  0.00     0.255 C 
ATOM      8  N   LIG d   1      24.934 -10.537  13.199  0.00  0.00    -0.212 NA
ATOM      9  O   LIG d   1      22.934  -9.775  13.738  0.00  0.00    -0.270 OA
BRANCH   8  10
ATOM     10  C   LIG d   1      26.230 -10.938  13.360  0.00  0.00     0.086 A 
ATOM     11  C   LIG d   1      26.745 -11.388  14.595  0.00  0.00     0.049 A 
ATOM     12  C   LIG d   1      28.077 -11.827  14.716  0.00  0.00     0.138 A 
ATOM     13  C   LIG d   1      28.930 -11.844  13.587  0.00  0.00     0.006 A 
ATOM     14  F   LIG d   1      28.488 -12.221  15.893  0.00  0.00    -0.204 F 
ATOM     15  C   LIG d   1      30.345 -12.287  13.686  0.00  0.00     0.033 C 
ATOM     16  C   LIG d   1      28.409 -11.409  12.345  0.00  0.00    -0.001 A 
ATOM     17  C   LIG d   1      27.073 -10.973  12.231  0.00  0.00     0.019 A 
ENDBRANCH   8  10
ENDBRANCH   1   7
BRANCH   4  18
ATOM     18  C   LIG d   1      23.257  -6.842  18.522  0.00  0.00     0.727 A 
ATOM     19  N   LIG d   1      21.948  -7.219  18.615  0.00  0.00    -0.060 NA
ATOM     20  C   LIG d   1      21.057  -6.616  19.441  0.00  0.00     0.120 A 
ATOM     21  C   LIG d   1      21.478  -5.550  20.252  0.00  0.00     0.043 A 
ATOM     22  C   LIG d   1      22.825  -5.164  20.171  0.00  0.00     0.120 A 
ATOM     23  N   LIG d   1      23.660  -5.814  19.322  0.00  0.00    -0.060 NA
ENDBRANCH   4  18
TORSDOF 3
ENDMDL
MODEL 5
REMARK NAME *****_MODEL5
REMARK  3 active torsions:
REMARK  status: ('A' for Active; 'I' for Inactive)
REMARK    1  A    between atoms: C_5  and  N_8 
REMARK       I    between atoms: N_8  and  C_9 
REMARK    2  A    between atoms: C_9  and  C_11 
REMARK    3  A    between atoms: N_14  and  C_17 
ROOT
ATOM      1  C   LIG d   1      25.358 -10.559  18.002  0.00  0.00     0.085 C 
ATOM      2  C   LIG d   1      25.023 -10.083  19.448  0.00  0.00     0.034 C 
ATOM      3  C   LIG d   1      25.176  -8.545  19.569  0.00  0.00     0.120 C 
ATOM      4  N   LIG d   1      24.323  -7.899  18.584  0.00  0.00    -0.183 N 
ATOM      5  C   LIG d   1      24.602  -8.238  17.196  0.00  0.00     0.120 C 
ATOM      6  C   LIG d   1      24.478  -9.772  16.980  0.00  0.00     0.034 C 
ENDROOT
BRANCH   1   7
ATOM      7  C   LIG d   1      25.213 -12.037  17.846  0.00  0.00     0.255 C 
ATOM      8  N   LIG d   1      25.499 -12.767  16.728  0.00  0.00    -0.212 NA
ATOM      9  O   LIG d   1      24.750 -12.700  18.803  0.00  0.00    -0.270 OA
BRANCH   8  10
ATOM     10  C   LIG d   1      26.189 -12.393  15.611  0.00  0.00     0.086 A 
ATOM     11  C   LIG d   1      25.582 -11.731  14.521  0.00  0.00     0.049 A 
ATOM     12  C   LIG d   1      26.332 -11.329  13.400  0.00  0.00     0.138 A 
ATOM     13  C   LIG d   1      27.727 -11.566  13.349  0.00  0.00     0.006 A 
ATOM     14  F   LIG d   1      25.702 -10.729  12.423  0.00  0.00    -0.204 F 
ATOM     15  C   LIG d   1      28.542 -11.168  12.173  0.00  0.00     0.033 C 
ATOM     16  C   LIG d   1      28.338 -12.215  14.448  0.00  0.00    -0.001 A 
ATOM     17  C   LIG d   1      27.581 -12.612  15.569  0.00  0.00     0.019 A 
ENDBRANCH   8  10
ENDBRANCH   1   7
BRANCH   4  18
ATOM     18  C   LIG d   1      23.276  -7.072  18.954  0.00  0.00     0.727 A 
ATOM     19  N   LIG d   1      21.995  -7.311  18.549  0.00  0.00    -0.060 NA
ATOM     20  C   LIG d   1      20.952  -6.502  18.862  0.00  0.00     0.120 A 
ATOM     21  C   LIG d   1      21.177  -5.356  19.642  0.00  0.00     0.043 A 
ATOM     22  C   LIG d   1      22.490  -5.109  20.073  0.00  0.00     0.120 A 
ATOM     23  N   LIG d   1      23.483  -5.964  19.721  0.00  0.00    -0.060 NA
ENDBRANCH   4  18
TORSDOF 3
ENDMDL
MODEL 6
REMARK NAME *****_MODEL6
REMARK  3 active torsions:
REMARK  status: ('A' for Active; 'I' for Inactive)
REMARK    1  A    between atoms: C_5  and  N_8 
REMARK       I    between atoms: N_8  and  C_9 
REMARK    2  A    between atoms: C_9  and  C_11 
REMARK    3  A    between atoms: N_14  and  C_17 
ROOT
ATOM      1  C   LIG d   1      24.829 -11.543  17.431  0.00  0.00     0.085 C 
ATOM      2  C   LIG d   1      25.596 -12.800  16.920  0.00  0.00     0.034 C 
ATOM      3  C   LIG d   1      25.615 -12.838  15.370  0.00  0.00     0.120 C 
ATOM      4  N   LIG d   1      26.210 -11.610  14.867  0.00  0.00    -0.183 N 
ATOM      5  C   LIG d   1      25.525 -10.382  15.246  0.00  0.00     0.120 C 
ATOM      6  C   LIG d   1      25.451 -10.261  16.792  0.00  0.00     0.034 C 
ENDROOT
BRANCH   1   7
ATOM      7  C   LIG d   1      24.797 -11.469  18.923  0.00  0.00     0.255 C 
ATOM      8  N   LIG d   1      24.052 -12.249  19.759  0.00  0.00    -0.212 NA
ATOM      9  O   LIG d   1      25.482 -10.589  19.494  0.00  0.00    -0.270 OA
BRANCH   8  10
ATOM     10  C   LIG d   1      23.372 -13.400  19.482  0.00  0.00     0.086 A 
ATOM     11  C   LIG d   1      23.536 -14.587  20.230  0.00  0.00     0.049 A 
ATOM     12  C   LIG d   1      22.793 -15.745  19.938  0.00  0.00     0.138 A 
ATOM     13  C   LIG d   1      21.842 -15.739  18.889  0.00  0.00     0.006 A 
ATOM     14  F   LIG d   1      23.005 -16.810  20.666  0.00  0.00    -0.204 F 
ATOM     15  C   LIG d   1      21.054 -16.951  18.546  0.00  0.00     0.033 C 
ATOM     16  C   LIG d   1      21.665 -14.546  18.150  0.00  0.00    -0.001 A 
ATOM     17  C   LIG d   1      22.411 -13.388  18.450  0.00  0.00     0.019 A 
ENDBRANCH   8  10
ENDBRANCH   1   7
BRANCH   4  18
ATOM     18  C   LIG d   1      27.385 -11.613  14.136  0.00  0.00     0.727 A 
ATOM     19  N   LIG d   1      28.608 -11.629  14.741  0.00  0.00    -0.060 NA
ATOM     20  C   LIG d   1      29.778 -11.595  14.056  0.00  0.00     0.120 A 
ATOM     21  C   LIG d   1      29.757 -11.543  12.653  0.00  0.00     0.043 A 
ATOM     22  C   LIG d   1      28.503 -11.538  12.022  0.00  0.00     0.120 A 
ATOM     23  N   LIG d   1      27.373 -11.574  12.772  0.00  0.00    -0.060 NA
ENDBRANCH   4  18
TORSDOF 3
ENDMDL
MODEL 7
REMARK NAME *****_MODEL7
REMARK  3 active torsions:
REMARK  status: ('A' for Active; 'I' for Inactive)
REMARK    1  A    between atoms: C_5  and  N_8 
REMARK       I    between atoms: N_8  and  C_9 
REMARK    2  A    between atoms: C_9  and  C_11 
REMARK    3  A    between atoms: N_14  and  C_17 
ROOT
ATOM      1  C   LIG d   1      24.621  -8.968  15.254  0.00  0.00     0.085 C 
ATOM      2  C   LIG d   1      24.049  -9.550  16.581  0.00  0.00     0.034 C 
ATOM      3  C   LIG d   1      24.534  -8.722  17.798  0.00  0.00     0.120 C 
ATOM      4  N   LIG d   1      24.149  -7.331  17.617  0.00  0.00    -0.183 N 
ATOM      5  C   LIG d   1      24.687  -6.683  16.429  0.00  0.00     0.120 C 
ATOM      6  C   LIG d   1      24.254  -7.453  15.152  0.00  0.00     0.034 C 
ENDROOT
BRANCH   1   7
ATOM      7  C   LIG d   1      24.166  -9.737  14.057  0.00  0.00     0.255 C 
ATOM      8  N   LIG d   1      24.954 -10.466  13.213  0.00  0.00    -0.212 NA
ATOM      9  O   LIG d   1      22.953  -9.701  13.746  0.00  0.00    -0.270 OA
BRANCH   8  10
ATOM     10  C   LIG d   1      26.249 -10.865  13.377  0.00  0.00     0.086 A 
ATOM     11  C   LIG d   1      27.177 -10.914  12.313  0.00  0.00     0.049 A 
ATOM     12  C   LIG d   1      28.514 -11.296  12.525  0.00  0.00     0.138 A 
ATOM     13  C   LIG d   1      28.966 -11.627  13.825  0.00  0.00     0.006 A 
ATOM     14  F   LIG d   1      29.314 -11.328  11.491  0.00  0.00    -0.204 F 
ATOM     15  C   LIG d   1      30.368 -12.051  14.078  0.00  0.00     0.033 C 
ATOM     16  C   LIG d   1      28.042 -11.563  14.894  0.00  0.00    -0.001 A 
ATOM     17  C   LIG d   1      26.704 -11.175  14.675  0.00  0.00     0.019 A 
ENDBRANCH   8  10
ENDBRANCH   1   7
BRANCH   4  18
ATOM     18  C   LIG d   1      23.276  -6.696  18.483  0.00  0.00     0.727 A 
ATOM     19  N   LIG d   1      23.721  -5.861  19.467  0.00  0.00    -0.060 NA
ATOM     20  C   LIG d   1      22.896  -5.251  20.355  0.00  0.00     0.120 A 
ATOM     21  C   LIG d   1      21.512  -5.473  20.278  0.00  0.00     0.043 A 
ATOM     22  C   LIG d   1      21.045  -6.322  19.262  0.00  0.00     0.120 A 
ATOM     23  N   LIG d   1      21.929  -6.897  18.408  0.00  0.00    -0.060 NA
ENDBRANCH   4  18
TORSDOF 3
ENDMDL
MODEL 8
REMARK NAME *****_MODEL8
REMARK  3 active torsions:
REMARK  status: ('A' for Active; 'I' for Inactive)
REMARK    1  A    between atoms: C_5  and  N_8 
REMARK       I    between atoms: N_8  and  C_9 
REMARK    2  A    between atoms: C_9  and  C_11 
REMARK    3  A    between atoms: N_14  and  C_17 
ROOT
ATOM      1  C   LIG d   1      24.852 -11.141  17.452  0.00  0.00     0.085 C 
ATOM      2  C   LIG d   1      25.365 -12.433  16.749  0.00  0.00     0.034 C 
ATOM      3  C   LIG d   1      25.414 -12.240  15.212  0.00  0.00     0.120 C 
ATOM      4  N   LIG d   1      26.252 -11.094  14.898  0.00  0.00    -0.183 N 
ATOM      5  C   LIG d   1      25.816  -9.825  15.465  0.00  0.00     0.120 C 
ATOM      6  C   LIG d   1      25.731  -9.927  17.012  0.00  0.00     0.034 C 
ENDROOT
BRANCH   1   7
ATOM      7  C   LIG d   1      24.800 -11.287  18.937  0.00  0.00     0.255 C 
ATOM      8  N   LIG d   1      24.157 -12.270  19.634  0.00  0.00    -0.212 NA
ATOM      9  O   LIG d   1      25.359 -10.419  19.646  0.00  0.00    -0.270 OA
BRANCH   8  10
ATOM     10  C   LIG d   1      23.636 -13.447  19.178  0.00  0.00     0.086 A 
ATOM     11  C   LIG d   1      24.314 -14.681  19.293  0.00  0.00     0.049 A 
ATOM     12  C   LIG d   1      23.732 -15.880  18.843  0.00  0.00     0.138 A 
ATOM     13  C   LIG d   1      22.435 -15.878  18.276  0.00  0.00     0.006 A 
ATOM     14  F   LIG d   1      24.422 -16.984  18.973  0.00  0.00    -0.204 F 
ATOM     15  C   LIG d   1      21.801 -17.125  17.777  0.00  0.00     0.033 C 
ATOM     16  C   LIG d   1      21.749 -14.645  18.175  0.00  0.00    -0.001 A 
ATOM     17  C   LIG d   1      22.337 -13.447  18.631  0.00  0.00     0.019 A 
ENDBRANCH   8  10
ENDBRANCH   1   7
BRANCH   4  18
ATOM     18  C   LIG d   1      27.421 -11.221  14.167  0.00  0.00     0.727 A 
ATOM     19  N   LIG d   1      28.649 -11.086  14.746  0.00  0.00    -0.060 NA
ATOM     20  C   LIG d   1      29.812 -11.168  14.053  0.00  0.00     0.120 A 
ATOM     21  C   LIG d   1      29.777 -11.405  12.669  0.00  0.00     0.043 A 
ATOM     22  C   LIG d   1      28.518 -11.557  12.068  0.00  0.00     0.120 A 
ATOM     23  N   LIG d   1      27.396 -11.463  12.825  0.00  0.00    -0.060 NA
ENDBRANCH   4  18
TORSDOF 3
ENDMDL
MODEL 9
REMARK NAME *****_MODEL9
REMARK  3 active torsions:
REMARK  status: ('A' for Active; 'I' for Inactive)
REMARK    1  A    between atoms: C_5  and  N_8 
REMARK       I    between atoms: N_8  and  C_9 
REMARK    2  A    between atoms: C_9  and  C_11 
REMARK    3  A    between atoms: N_14  and  C_17 
ROOT
ATOM      1  C   LIG d   1      24.863 -11.128  17.443  0.00  0.00     0.085 C 
ATOM      2  C   LIG d   1      25.353 -12.420  16.723  0.00  0.00     0.034 C 
ATOM      3  C   LIG d   1      25.412 -12.205  15.189  0.00  0.00     0.120 C 
ATOM      4  N   LIG d   1      26.275 -11.072  14.896  0.00  0.00    -0.183 N 
ATOM      5  C   LIG d   1      25.862  -9.803  15.479  0.00  0.00     0.120 C 
ATOM      6  C   LIG d   1      25.769  -9.926  17.025  0.00  0.00     0.034 C 
ENDROOT
BRANCH   1   7
ATOM      7  C   LIG d   1      24.802 -11.295  18.926  0.00  0.00     0.255 C 
ATOM      8  N   LIG d   1      24.170 -12.297  19.604  0.00  0.00    -0.212 NA
ATOM      9  O   LIG d   1      25.341 -10.427  19.650  0.00  0.00    -0.270 OA
BRANCH   8  10
ATOM     10  C   LIG d   1      23.672 -13.477  19.128  0.00  0.00     0.086 A 
ATOM     11  C   LIG d   1      24.420 -14.675  19.116  0.00  0.00     0.049 A 
ATOM     12  C   LIG d   1      23.863 -15.880  18.651  0.00  0.00     0.138 A 
ATOM     13  C   LIG d   1      22.523 -15.921  18.197  0.00  0.00     0.006 A 
ATOM     14  F   LIG d   1      24.617 -16.948  18.659  0.00  0.00    -0.204 F 
ATOM     15  C   LIG d   1      21.912 -17.175  17.684  0.00  0.00     0.033 C 
ATOM     16  C   LIG d   1      21.768 -14.725  18.224  0.00  0.00    -0.001 A 
ATOM     17  C   LIG d   1      22.331 -13.521  18.695  0.00  0.00     0.019 A 
ENDBRANCH   8  10
ENDBRANCH   1   7
BRANCH   4  18
ATOM     18  C   LIG d   1      27.444 -11.212  14.167  0.00  0.00     0.727 A 
ATOM     19  N   LIG d   1      28.672 -11.072  14.745  0.00  0.00    -0.060 NA
ATOM     20  C   LIG d   1      29.835 -11.167  14.054  0.00  0.00     0.120 A 
ATOM     21  C   LIG d   1      29.800 -11.423  12.674  0.00  0.00     0.043 A 
ATOM     22  C   LIG d   1      28.541 -11.581  12.074  0.00  0.00     0.120 A 
ATOM     23  N   LIG d   1      27.419 -11.473  12.829  0.00  0.00    -0.060 NA
ENDBRANCH   4  18
TORSDOF 3
ENDMDL
MODEL 10
REMARK NAME *****_MODEL10
REMARK  3 active torsions:
REMARK  status: ('A' for Active; 'I' for Inactive)
REMARK    1  A    between atoms: C_5  and  N_8 
REMARK       I    between atoms: N_8  and  C_9 
REMARK    2  A    between atoms: C_9  and  C_11 
REMARK    3  A    between atoms: N_14  and  C_17 
ROOT
ATOM      1  C   LIG d   1      24.861 -11.163  17.438  0.00  0.00     0.085 C 
ATOM      2  C   LIG d   1      25.384 -12.458  16.747  0.00  0.00     0.034 C 
ATOM      3  C   LIG d   1      25.436 -12.278  15.209  0.00  0.00     0.120 C 
ATOM      4  N   LIG d   1      26.269 -11.129  14.888  0.00  0.00    -0.183 N 
ATOM      5  C   LIG d   1      25.823  -9.859  15.443  0.00  0.00     0.120 C 
ATOM      6  C   LIG d   1      25.735  -9.948  16.991  0.00  0.00     0.034 C 
ENDROOT
BRANCH   1   7
ATOM      7  C   LIG d   1      24.805 -11.298  18.924  0.00  0.00     0.255 C 
ATOM      8  N   LIG d   1      24.159 -12.273  19.628  0.00  0.00    -0.212 NA
ATOM      9  O   LIG d   1      25.365 -10.426  19.627  0.00  0.00    -0.270 OA
BRANCH   8  10
ATOM     10  C   LIG d   1      23.636 -13.453  19.180  0.00  0.00     0.086 A 
ATOM     11  C   LIG d   1      24.313 -14.686  19.300  0.00  0.00     0.049 A 
ATOM     12  C   LIG d   1      23.729 -15.888  18.859  0.00  0.00     0.138 A 
ATOM     13  C   LIG d   1      22.430 -15.888  18.296  0.00  0.00     0.006 A 
ATOM     14  F   LIG d   1      24.419 -16.991  18.993  0.00  0.00    -0.204 F 
ATOM     15  C   LIG d   1      21.793 -17.137  17.806  0.00  0.00     0.033 C 
ATOM     16  C   LIG d   1      21.744 -14.655  18.190  0.00  0.00    -0.001 A 
ATOM     17  C   LIG d   1      22.335 -13.455  18.637  0.00  0.00     0.019 A 
ENDBRANCH   8  10
ENDBRANCH   1   7
BRANCH   4  18
ATOM     18  C   LIG d   1      27.440 -11.256  14.161  0.00  0.00     0.727 A 
ATOM     19  N   LIG d   1      28.665 -11.081  14.737  0.00  0.00    -0.060 NA
ATOM     20  C   LIG d   1      29.830 -11.162  14.047  0.00  0.00     0.120 A 
ATOM     21  C   LIG d   1      29.801 -11.439  12.671  0.00  0.00     0.043 A 
ATOM     22  C   LIG d   1      28.545 -11.632  12.073  0.00  0.00     0.120 A 
ATOM     23  N   LIG d   1      27.421 -11.536  12.827  0.00  0.00    -0.060 NA
ENDBRANCH   4  18
TORSDOF 3
ENDMDL
