@<TRIPOS>MOLECULE
ligands_in1_1.pdb
 30 32 0 0 0
SMALL
GASTEIGER

@<TRIPOS>ATOM
      1  C         25.9210   -9.5400   17.0170 C.3     1  LIG1        0.0940
      2  C         24.7820   -8.5420   16.8790 C.3     1  LIG1        0.0215
      3  O         24.3600  -18.2480   17.4440 O.2     1  LIG1       -0.1483
      4  C         25.2950  -11.3660   15.4830 C.3     1  LIG1        0.1204
      5  C         26.5650  -11.4100   14.6630 C.ar    1  LIG1       -0.0023
      6  C         28.9260  -11.7830   14.4720 C.ar    1  LIG1       -0.0003
      7  C         28.8750  -11.4720   13.1290 C.ar    1  LIG1       -0.0000
      8  C         27.6710  -11.1670   12.5470 C.ar    1  LIG1       -0.0003
      9  C         26.5310  -11.0970   13.3110 C.ar    1  LIG1       -0.0026
     10  C         24.7450  -13.1200   17.7750 C.ar    1  LIG1        0.0537
     11  C         25.5820  -14.1370   17.3660 C.ar    1  LIG1        0.0059
     12  C         25.1120  -15.4490   17.2780 C.ar    1  LIG1        0.0204
     13  C         23.7880  -15.7240   17.5850 C.ar    1  LIG1        0.1270
     14  C         23.1470  -17.1840   20.5500 C.ar    1  LIG1        0.0907
     15  C         24.2290  -17.9110   21.0250 C.ar    1  LIG1        0.0138
     16  C         24.9130  -17.4360   22.1180 C.ar    1  LIG1       -0.0205
     17  C         24.5300  -16.2910   22.7780 C.ar    1  LIG1       -0.0042
     18  C         23.4610  -15.5800   22.2880 C.ar    1  LIG1        0.0011
     19  C         22.7800  -16.0130   21.1740 C.ar    1  LIG1        0.0180
     20  C         22.9370  -14.7160   17.9630 C.ar    1  LIG1        0.0204
     21  C         23.4180  -13.4270   18.0780 C.ar    1  LIG1        0.0059
     22  S         23.2370  -17.4010   17.7020 S.O2    1  LIG1        0.0928
     23  O         22.0250  -17.5440   16.9620 O.2     1  LIG1       -0.1483
     24  N         22.8840  -17.6280   19.2640 N.pl3   1  LIG1       -0.0966
     25  CL        26.3130  -18.2990   22.6620 C.3     1  LIG1        0.0311
     26  C         25.1740  -11.7050   17.9530 C.2     1  LIG1        0.2493
     27  O         25.2110  -11.2820   19.0750 O.2     1  LIG1       -0.2699
     28  N         25.4630  -10.9330   16.8730 N.am    1  LIG1       -0.2720
     29  C         25.3210   -7.1150   16.9380 C.3     1  LIG1        0.0018
     30  C         27.7650  -11.7880   15.2210 C.ar    1  LIG1       -0.0026
@<TRIPOS>BOND
     1     8     7   ar
     2     8     9   ar
     3     7     6   ar
     4     9     5   ar
     5     6    30   ar
     6     5    30   ar
     7     5     4    1
     8     4    28    1
     9    28     1    1
    10    28    26   am
    11     2    29    1
    12     2     1    1
    13    23    22    2
    14    12    11   ar
    15    12    13   ar
    16    11    10   ar
    17     3    22    2
    18    13    22    1
    19    13    20   ar
    20    22    24    1
    21    10    26    1
    22    10    21   ar
    23    26    27    2
    24    20    21   ar
    25    24    14    1
    26    14    15   ar
    27    14    19   ar
    28    15    16   ar
    29    19    18   ar
    30    16    25    1
    31    16    17   ar
    32    18    17   ar
@<TRIPOS>MOLECULE
ligands_in1_2.pdb
 30 32 0 0 0
SMALL
GASTEIGER

@<TRIPOS>ATOM
      1  C         25.9250   -9.5430   17.0180 C.3     1  LIG1        0.0940
      2  C         24.7870   -8.5440   16.8810 C.3     1  LIG1        0.0215
      3  O         24.3550  -18.2500   17.4430 O.2     1  LIG1       -0.1483
      4  C         25.2960  -11.3690   15.4840 C.3     1  LIG1        0.1204
      5  C         26.5660  -11.4140   14.6630 C.ar    1  LIG1       -0.0023
      6  C         28.9270  -11.7890   14.4710 C.ar    1  LIG1       -0.0003
      7  C         28.8760  -11.4780   13.1280 C.ar    1  LIG1       -0.0000
      8  C         27.6710  -11.1720   12.5460 C.ar    1  LIG1       -0.0003
      9  C         26.5320  -11.1000   13.3110 C.ar    1  LIG1       -0.0026
     10  C         24.7460  -13.1230   17.7760 C.ar    1  LIG1        0.0537
     11  C         25.5810  -14.1400   17.3650 C.ar    1  LIG1        0.0059
     12  C         25.1100  -15.4520   17.2780 C.ar    1  LIG1        0.0204
     13  C         23.7850  -15.7250   17.5850 C.ar    1  LIG1        0.1270
     14  C         23.1450  -17.1850   20.5500 C.ar    1  LIG1        0.0907
     15  C         24.2260  -17.9150   21.0250 C.ar    1  LIG1        0.0138
     16  C         24.9100  -17.4400   22.1180 C.ar    1  LIG1       -0.0205
     17  C         24.5290  -16.2950   22.7780 C.ar    1  LIG1       -0.0042
     18  C         23.4610  -15.5830   22.2880 C.ar    1  LIG1        0.0011
     19  C         22.7790  -16.0150   21.1740 C.ar    1  LIG1        0.0180
     20  C         22.9360  -14.7170   17.9640 C.ar    1  LIG1        0.0204
     21  C         23.4180  -13.4280   18.0790 C.ar    1  LIG1        0.0059
     22  S         23.2330  -17.4020   17.7020 S.O2    1  LIG1        0.0928
     23  O         22.0210  -17.5440   16.9620 O.2     1  LIG1       -0.1483
     24  N         22.8800  -17.6290   19.2640 N.pl3   1  LIG1       -0.0966
     25  CL        26.3100  -18.3040   22.6600 C.3     1  LIG1        0.0311
     26  C         25.1760  -11.7080   17.9540 C.2     1  LIG1        0.2493
     27  O         25.2140  -11.2850   19.0760 O.2     1  LIG1       -0.2699
     28  N         25.4650  -10.9360   16.8730 N.am    1  LIG1       -0.2720
     29  C         25.3280   -7.1180   16.9400 C.3     1  LIG1        0.0018
     30  C         27.7660  -11.7930   15.2210 C.ar    1  LIG1       -0.0026
@<TRIPOS>BOND
     1     8     7   ar
     2     8     9   ar
     3     7     6   ar
     4     9     5   ar
     5     6    30   ar
     6     5    30   ar
     7     5     4    1
     8     4    28    1
     9    28     1    1
    10    28    26   am
    11     2    29    1
    12     2     1    1
    13    23    22    2
    14    12    11   ar
    15    12    13   ar
    16    11    10   ar
    17     3    22    2
    18    13    22    1
    19    13    20   ar
    20    22    24    1
    21    10    26    1
    22    10    21   ar
    23    26    27    2
    24    20    21   ar
    25    24    14    1
    26    14    15   ar
    27    14    19   ar
    28    15    16   ar
    29    19    18   ar
    30    16    25    1
    31    16    17   ar
    32    18    17   ar
@<TRIPOS>MOLECULE
ligands_in1_3.pdb
 30 32 0 0 0
SMALL
GASTEIGER

@<TRIPOS>ATOM
      1  C         25.9260   -9.5440   17.0200 C.3     1  LIG1        0.0940
      2  C         24.7880   -8.5450   16.8810 C.3     1  LIG1        0.0215
      3  O         24.3540  -18.2500   17.4420 O.2     1  LIG1       -0.1483
      4  C         25.2990  -11.3690   15.4850 C.3     1  LIG1        0.1204
      5  C         26.5700  -11.4150   14.6650 C.ar    1  LIG1       -0.0023
      6  C         28.9310  -11.7900   14.4770 C.ar    1  LIG1       -0.0003
      7  C         28.8820  -11.4790   13.1340 C.ar    1  LIG1       -0.0000
      8  C         27.6790  -11.1720   12.5510 C.ar    1  LIG1       -0.0003
      9  C         26.5390  -11.1010   13.3130 C.ar    1  LIG1       -0.0026
     10  C         24.7450  -13.1230   17.7750 C.ar    1  LIG1        0.0537
     11  C         25.5810  -14.1410   17.3660 C.ar    1  LIG1        0.0059
     12  C         25.1100  -15.4530   17.2780 C.ar    1  LIG1        0.0204
     13  C         23.7840  -15.7260   17.5830 C.ar    1  LIG1        0.1270
     14  C         23.1380  -17.1860   20.5470 C.ar    1  LIG1        0.0907
     15  C         24.2190  -17.9160   21.0230 C.ar    1  LIG1        0.0138
     16  C         24.9020  -17.4410   22.1170 C.ar    1  LIG1       -0.0205
     17  C         24.5200  -16.2970   22.7770 C.ar    1  LIG1       -0.0042
     18  C         23.4520  -15.5840   22.2850 C.ar    1  LIG1        0.0011
     19  C         22.7720  -16.0160   21.1710 C.ar    1  LIG1        0.0180
     20  C         22.9340  -14.7170   17.9600 C.ar    1  LIG1        0.0204
     21  C         23.4160  -13.4290   18.0770 C.ar    1  LIG1        0.0059
     22  S         23.2310  -17.4020   17.6980 S.O2    1  LIG1        0.0928
     23  O         22.0200  -17.5440   16.9570 O.2     1  LIG1       -0.1483
     24  N         22.8760  -17.6300   19.2600 N.pl3   1  LIG1       -0.0966
     25  CL        26.3010  -18.3060   22.6620 C.3     1  LIG1        0.0311
     26  C         25.1750  -11.7090   17.9540 C.2     1  LIG1        0.2493
     27  O         25.2110  -11.2860   19.0760 O.2     1  LIG1       -0.2699
     28  N         25.4660  -10.9370   16.8740 N.am    1  LIG1       -0.2720
     29  C         25.3290   -7.1190   16.9410 C.3     1  LIG1        0.0018
     30  C         27.7690  -11.7940   15.2250 C.ar    1  LIG1       -0.0026
@<TRIPOS>BOND
     1     8     7   ar
     2     8     9   ar
     3     7     6   ar
     4     9     5   ar
     5     6    30   ar
     6     5    30   ar
     7     5     4    1
     8     4    28    1
     9    28     1    1
    10    28    26   am
    11     2    29    1
    12     2     1    1
    13    23    22    2
    14    12    11   ar
    15    12    13   ar
    16    11    10   ar
    17     3    22    2
    18    13    22    1
    19    13    20   ar
    20    22    24    1
    21    10    26    1
    22    10    21   ar
    23    26    27    2
    24    20    21   ar
    25    24    14    1
    26    14    15   ar
    27    14    19   ar
    28    15    16   ar
    29    19    18   ar
    30    16    25    1
    31    16    17   ar
    32    18    17   ar
@<TRIPOS>MOLECULE
ligands_in1_4.pdb
 30 32 0 0 0
SMALL
GASTEIGER

@<TRIPOS>ATOM
      1  C         25.9280   -9.5470   17.0180 C.3     1  LIG1        0.0940
      2  C         24.7910   -8.5470   16.8810 C.3     1  LIG1        0.0215
      3  O         24.3500  -18.2520   17.4420 O.2     1  LIG1       -0.1483
      4  C         25.2980  -11.3710   15.4840 C.3     1  LIG1        0.1204
      5  C         26.5680  -11.4180   14.6630 C.ar    1  LIG1       -0.0023
      6  C         28.9290  -11.7950   14.4730 C.ar    1  LIG1       -0.0003
      7  C         28.8790  -11.4840   13.1300 C.ar    1  LIG1       -0.0000
      8  C         27.6750  -11.1760   12.5480 C.ar    1  LIG1       -0.0003
      9  C         26.5360  -11.1040   13.3110 C.ar    1  LIG1       -0.0026
     10  C         24.7450  -13.1250   17.7750 C.ar    1  LIG1        0.0537
     11  C         25.5800  -14.1440   17.3650 C.ar    1  LIG1        0.0059
     12  C         25.1080  -15.4550   17.2770 C.ar    1  LIG1        0.0204
     13  C         23.7820  -15.7270   17.5830 C.ar    1  LIG1        0.1270
     14  C         23.1380  -17.1870   20.5480 C.ar    1  LIG1        0.0907
     15  C         24.2190  -17.9170   21.0230 C.ar    1  LIG1        0.0138
     16  C         24.9030  -17.4430   22.1160 C.ar    1  LIG1       -0.0205
     17  C         24.5220  -16.2980   22.7760 C.ar    1  LIG1       -0.0042
     18  C         23.4550  -15.5850   22.2860 C.ar    1  LIG1        0.0011
     19  C         22.7730  -16.0160   21.1720 C.ar    1  LIG1        0.0180
     20  C         22.9340  -14.7180   17.9620 C.ar    1  LIG1        0.0204
     21  C         23.4160  -13.4290   18.0770 C.ar    1  LIG1        0.0059
     22  S         23.2280  -17.4030   17.6990 S.O2    1  LIG1        0.0928
     23  O         22.0170  -17.5440   16.9590 O.2     1  LIG1       -0.1483
     24  N         22.8750  -17.6300   19.2610 N.pl3   1  LIG1       -0.0966
     25  CL        26.3020  -18.3090   22.6600 C.3     1  LIG1        0.0311
     26  C         25.1770  -11.7110   17.9530 C.2     1  LIG1        0.2493
     27  O         25.2140  -11.2880   19.0760 O.2     1  LIG1       -0.2699
     28  N         25.4660  -10.9400   16.8730 N.am    1  LIG1       -0.2720
     29  C         25.3330   -7.1210   16.9400 C.3     1  LIG1        0.0018
     30  C         27.7680  -11.7980   15.2220 C.ar    1  LIG1       -0.0026
@<TRIPOS>BOND
     1     8     7   ar
     2     8     9   ar
     3     7     6   ar
     4     9     5   ar
     5     6    30   ar
     6     5    30   ar
     7     5     4    1
     8     4    28    1
     9    28     1    1
    10    28    26   am
    11     2    29    1
    12     2     1    1
    13    23    22    2
    14    12    11   ar
    15    12    13   ar
    16    11    10   ar
    17     3    22    2
    18    13    22    1
    19    13    20   ar
    20    22    24    1
    21    10    26    1
    22    10    21   ar
    23    26    27    2
    24    20    21   ar
    25    24    14    1
    26    14    15   ar
    27    14    19   ar
    28    15    16   ar
    29    19    18   ar
    30    16    25    1
    31    16    17   ar
    32    18    17   ar
@<TRIPOS>MOLECULE
ligands_in1_5.pdb
 30 32 0 0 0
SMALL
GASTEIGER

@<TRIPOS>ATOM
      1  C         25.9280   -9.5460   17.0180 C.3     1  LIG1        0.0940
      2  C         24.7900   -8.5460   16.8790 C.3     1  LIG1        0.0215
      3  O         24.3530  -18.2510   17.4430 O.2     1  LIG1       -0.1483
      4  C         25.3000  -11.3710   15.4830 C.3     1  LIG1        0.1204
      5  C         26.5700  -11.4170   14.6640 C.ar    1  LIG1       -0.0023
      6  C         28.9320  -11.7930   14.4750 C.ar    1  LIG1       -0.0003
      7  C         28.8820  -11.4820   13.1320 C.ar    1  LIG1       -0.0000
      8  C         27.6790  -11.1750   12.5490 C.ar    1  LIG1       -0.0003
      9  C         26.5390  -11.1030   13.3120 C.ar    1  LIG1       -0.0026
     10  C         24.7460  -13.1240   17.7750 C.ar    1  LIG1        0.0537
     11  C         25.5810  -14.1420   17.3660 C.ar    1  LIG1        0.0059
     12  C         25.1100  -15.4540   17.2780 C.ar    1  LIG1        0.0204
     13  C         23.7840  -15.7270   17.5830 C.ar    1  LIG1        0.1270
     14  C         23.1390  -17.1860   20.5480 C.ar    1  LIG1        0.0907
     15  C         24.2200  -17.9150   21.0240 C.ar    1  LIG1        0.0138
     16  C         24.9030  -17.4410   22.1180 C.ar    1  LIG1       -0.0205
     17  C         24.5210  -16.2960   22.7770 C.ar    1  LIG1       -0.0042
     18  C         23.4530  -15.5830   22.2860 C.ar    1  LIG1        0.0011
     19  C         22.7730  -16.0150   21.1710 C.ar    1  LIG1        0.0180
     20  C         22.9350  -14.7170   17.9610 C.ar    1  LIG1        0.0204
     21  C         23.4170  -13.4290   18.0760 C.ar    1  LIG1        0.0059
     22  S         23.2310  -17.4030   17.6990 S.O2    1  LIG1        0.0928
     23  O         22.0200  -17.5440   16.9580 O.2     1  LIG1       -0.1483
     24  N         22.8760  -17.6300   19.2610 N.pl3   1  LIG1       -0.0966
     25  CL        26.3010  -18.3060   22.6620 C.3     1  LIG1        0.0311
     26  C         25.1760  -11.7100   17.9530 C.2     1  LIG1        0.2493
     27  O         25.2130  -11.2870   19.0750 O.2     1  LIG1       -0.2699
     28  N         25.4670  -10.9380   16.8730 N.am    1  LIG1       -0.2720
     29  C         25.3310   -7.1200   16.9380 C.3     1  LIG1        0.0018
     30  C         27.7700  -11.7960   15.2230 C.ar    1  LIG1       -0.0026
@<TRIPOS>BOND
     1     8     7   ar
     2     8     9   ar
     3     7     6   ar
     4     9     5   ar
     5     6    30   ar
     6     5    30   ar
     7     5     4    1
     8     4    28    1
     9    28     1    1
    10    28    26   am
    11     2    29    1
    12     2     1    1
    13    23    22    2
    14    12    11   ar
    15    12    13   ar
    16    11    10   ar
    17     3    22    2
    18    13    22    1
    19    13    20   ar
    20    22    24    1
    21    10    26    1
    22    10    21   ar
    23    26    27    2
    24    20    21   ar
    25    24    14    1
    26    14    15   ar
    27    14    19   ar
    28    15    16   ar
    29    19    18   ar
    30    16    25    1
    31    16    17   ar
    32    18    17   ar
@<TRIPOS>MOLECULE
ligands_in1_6.pdb
 30 32 0 0 0
SMALL
GASTEIGER

@<TRIPOS>ATOM
      1  C         25.9230   -9.5400   17.0160 C.3     1  LIG1        0.0940
      2  C         24.7840   -8.5420   16.8780 C.3     1  LIG1        0.0215
      3  O         24.3610  -18.2470   17.4490 O.2     1  LIG1       -0.1483
      4  C         25.2960  -11.3670   15.4840 C.3     1  LIG1        0.1204
      5  C         26.5660  -11.4120   14.6630 C.ar    1  LIG1       -0.0023
      6  C         28.9280  -11.7850   14.4730 C.ar    1  LIG1       -0.0003
      7  C         28.8770  -11.4750   13.1300 C.ar    1  LIG1       -0.0000
      8  C         27.6730  -11.1700   12.5470 C.ar    1  LIG1       -0.0003
      9  C         26.5330  -11.0990   13.3110 C.ar    1  LIG1       -0.0026
     10  C         24.7470  -13.1200   17.7770 C.ar    1  LIG1        0.0537
     11  C         25.5830  -14.1370   17.3680 C.ar    1  LIG1        0.0059
     12  C         25.1130  -15.4490   17.2810 C.ar    1  LIG1        0.0204
     13  C         23.7890  -15.7230   17.5880 C.ar    1  LIG1        0.1270
     14  C         23.1480  -17.1820   20.5540 C.ar    1  LIG1        0.0907
     15  C         24.2300  -17.9090   21.0300 C.ar    1  LIG1        0.0138
     16  C         24.9130  -17.4330   22.1220 C.ar    1  LIG1       -0.0205
     17  C         24.5310  -16.2880   22.7810 C.ar    1  LIG1       -0.0042
     18  C         23.4620  -15.5770   22.2910 C.ar    1  LIG1        0.0011
     19  C         22.7810  -16.0110   21.1770 C.ar    1  LIG1        0.0180
     20  C         22.9380  -14.7150   17.9650 C.ar    1  LIG1        0.0204
     21  C         23.4190  -13.4260   18.0800 C.ar    1  LIG1        0.0059
     22  S         23.2380  -17.4000   17.7060 S.O2    1  LIG1        0.0928
     23  O         22.0260  -17.5440   16.9650 O.2     1  LIG1       -0.1483
     24  N         22.8850  -17.6270   19.2680 N.pl3   1  LIG1       -0.0966
     25  CL        26.3140  -18.2960   22.6670 C.3     1  LIG1        0.0311
     26  C         25.1760  -11.7040   17.9540 C.2     1  LIG1        0.2493
     27  O         25.2130  -11.2810   19.0760 O.2     1  LIG1       -0.2699
     28  N         25.4640  -10.9340   16.8730 N.am    1  LIG1       -0.2720
     29  C         25.3230   -7.1150   16.9360 C.3     1  LIG1        0.0018
     30  C         27.7670  -11.7890   15.2220 C.ar    1  LIG1       -0.0026
@<TRIPOS>BOND
     1     8     7   ar
     2     8     9   ar
     3     7     6   ar
     4     9     5   ar
     5     6    30   ar
     6     5    30   ar
     7     5     4    1
     8     4    28    1
     9    28     1    1
    10    28    26   am
    11     2    29    1
    12     2     1    1
    13    23    22    2
    14    12    11   ar
    15    12    13   ar
    16    11    10   ar
    17     3    22    2
    18    13    22    1
    19    13    20   ar
    20    22    24    1
    21    10    26    1
    22    10    21   ar
    23    26    27    2
    24    20    21   ar
    25    24    14    1
    26    14    15   ar
    27    14    19   ar
    28    15    16   ar
    29    19    18   ar
    30    16    25    1
    31    16    17   ar
    32    18    17   ar
@<TRIPOS>MOLECULE
ligands_in1_7.pdb
 30 32 0 0 0
SMALL
GASTEIGER

@<TRIPOS>ATOM
      1  C         25.9260   -9.5450   17.0160 C.3     1  LIG1        0.0940
      2  C         24.7880   -8.5450   16.8780 C.3     1  LIG1        0.0215
      3  O         24.3530  -18.2500   17.4440 O.2     1  LIG1       -0.1483
      4  C         25.2970  -11.3700   15.4820 C.3     1  LIG1        0.1204
      5  C         26.5680  -11.4160   14.6630 C.ar    1  LIG1       -0.0023
      6  C         28.9290  -11.7920   14.4730 C.ar    1  LIG1       -0.0003
      7  C         28.8790  -11.4820   13.1300 C.ar    1  LIG1       -0.0000
      8  C         27.6750  -11.1750   12.5470 C.ar    1  LIG1       -0.0003
      9  C         26.5360  -11.1030   13.3100 C.ar    1  LIG1       -0.0026
     10  C         24.7440  -13.1230   17.7750 C.ar    1  LIG1        0.0537
     11  C         25.5800  -14.1410   17.3650 C.ar    1  LIG1        0.0059
     12  C         25.1080  -15.4530   17.2780 C.ar    1  LIG1        0.0204
     13  C         23.7830  -15.7260   17.5840 C.ar    1  LIG1        0.1270
     14  C         23.1390  -17.1840   20.5490 C.ar    1  LIG1        0.0907
     15  C         24.2200  -17.9130   21.0250 C.ar    1  LIG1        0.0138
     16  C         24.9030  -17.4390   22.1180 C.ar    1  LIG1       -0.0205
     17  C         24.5220  -16.2930   22.7780 C.ar    1  LIG1       -0.0042
     18  C         23.4540  -15.5810   22.2870 C.ar    1  LIG1        0.0011
     19  C         22.7730  -16.0130   21.1730 C.ar    1  LIG1        0.0180
     20  C         22.9340  -14.7160   17.9610 C.ar    1  LIG1        0.0204
     21  C         23.4160  -13.4280   18.0770 C.ar    1  LIG1        0.0059
     22  S         23.2300  -17.4020   17.7010 S.O2    1  LIG1        0.0928
     23  O         22.0190  -17.5440   16.9600 O.2     1  LIG1       -0.1483
     24  N         22.8760  -17.6280   19.2630 N.pl3   1  LIG1       -0.0966
     25  CL        26.3020  -18.3030   22.6630 C.3     1  LIG1        0.0311
     26  C         25.1750  -11.7080   17.9520 C.2     1  LIG1        0.2493
     27  O         25.2120  -11.2850   19.0740 O.2     1  LIG1       -0.2699
     28  N         25.4650  -10.9380   16.8720 N.am    1  LIG1       -0.2720
     29  C         25.3290   -7.1190   16.9360 C.3     1  LIG1        0.0018
     30  C         27.7670  -11.7960   15.2220 C.ar    1  LIG1       -0.0026
@<TRIPOS>BOND
     1     8     7   ar
     2     8     9   ar
     3     7     6   ar
     4     9     5   ar
     5     6    30   ar
     6     5    30   ar
     7     5     4    1
     8     4    28    1
     9    28     1    1
    10    28    26   am
    11     2    29    1
    12     2     1    1
    13    23    22    2
    14    12    11   ar
    15    12    13   ar
    16    11    10   ar
    17     3    22    2
    18    13    22    1
    19    13    20   ar
    20    22    24    1
    21    10    26    1
    22    10    21   ar
    23    26    27    2
    24    20    21   ar
    25    24    14    1
    26    14    15   ar
    27    14    19   ar
    28    15    16   ar
    29    19    18   ar
    30    16    25    1
    31    16    17   ar
    32    18    17   ar
@<TRIPOS>MOLECULE
ligands_in1_8.pdb
 30 32 0 0 0
SMALL
GASTEIGER

@<TRIPOS>ATOM
      1  C         25.9270   -9.5440   17.0150 C.3     1  LIG1        0.0940
      2  C         24.7890   -8.5450   16.8750 C.3     1  LIG1        0.0215
      3  O         24.3550  -18.2500   17.4460 O.2     1  LIG1       -0.1483
      4  C         25.3000  -11.3710   15.4820 C.3     1  LIG1        0.1204
      5  C         26.5710  -11.4170   14.6630 C.ar    1  LIG1       -0.0023
      6  C         28.9320  -11.7930   14.4750 C.ar    1  LIG1       -0.0003
      7  C         28.8840  -11.4830   13.1320 C.ar    1  LIG1       -0.0000
      8  C         27.6800  -11.1770   12.5480 C.ar    1  LIG1       -0.0003
      9  C         26.5400  -11.1040   13.3110 C.ar    1  LIG1       -0.0026
     10  C         24.7450  -13.1230   17.7740 C.ar    1  LIG1        0.0537
     11  C         25.5810  -14.1410   17.3660 C.ar    1  LIG1        0.0059
     12  C         25.1100  -15.4520   17.2790 C.ar    1  LIG1        0.0204
     13  C         23.7850  -15.7250   17.5840 C.ar    1  LIG1        0.1270
     14  C         23.1390  -17.1830   20.5500 C.ar    1  LIG1        0.0907
     15  C         24.2190  -17.9110   21.0270 C.ar    1  LIG1        0.0138
     16  C         24.9020  -17.4360   22.1200 C.ar    1  LIG1       -0.0205
     17  C         24.5190  -16.2910   22.7790 C.ar    1  LIG1       -0.0042
     18  C         23.4520  -15.5790   22.2870 C.ar    1  LIG1        0.0011
     19  C         22.7720  -16.0110   21.1720 C.ar    1  LIG1        0.0180
     20  C         22.9350  -14.7160   17.9610 C.ar    1  LIG1        0.0204
     21  C         23.4170  -13.4270   18.0760 C.ar    1  LIG1        0.0059
     22  S         23.2320  -17.4010   17.7020 S.O2    1  LIG1        0.0928
     23  O         22.0210  -17.5440   16.9600 O.2     1  LIG1       -0.1483
     24  N         22.8770  -17.6270   19.2630 N.pl3   1  LIG1       -0.0966
     25  CL        26.3000  -18.3000   22.6660 C.3     1  LIG1        0.0311
     26  C         25.1760  -11.7080   17.9520 C.2     1  LIG1        0.2493
     27  O         25.2120  -11.2840   19.0740 O.2     1  LIG1       -0.2699
     28  N         25.4670  -10.9370   16.8710 N.am    1  LIG1       -0.2720
     29  C         25.3300   -7.1190   16.9340 C.3     1  LIG1        0.0018
     30  C         27.7700  -11.7960   15.2230 C.ar    1  LIG1       -0.0026
@<TRIPOS>BOND
     1     8     7   ar
     2     8     9   ar
     3     7     6   ar
     4     9     5   ar
     5     6    30   ar
     6     5    30   ar
     7     5     4    1
     8     4    28    1
     9    28     1    1
    10    28    26   am
    11     2    29    1
    12     2     1    1
    13    23    22    2
    14    12    11   ar
    15    12    13   ar
    16    11    10   ar
    17     3    22    2
    18    13    22    1
    19    13    20   ar
    20    22    24    1
    21    10    26    1
    22    10    21   ar
    23    26    27    2
    24    20    21   ar
    25    24    14    1
    26    14    15   ar
    27    14    19   ar
    28    15    16   ar
    29    19    18   ar
    30    16    25    1
    31    16    17   ar
    32    18    17   ar
@<TRIPOS>MOLECULE
ligands_in1_9.pdb
 30 32 0 0 0
SMALL
GASTEIGER

@<TRIPOS>ATOM
      1  C         25.9250   -9.5390   17.0240 C.3     1  LIG1        0.0940
      2  C         24.7860   -8.5410   16.8840 C.3     1  LIG1        0.0215
      3  O         24.3630  -18.2470   17.4440 O.2     1  LIG1       -0.1483
      4  C         25.3010  -11.3650   15.4880 C.3     1  LIG1        0.1204
      5  C         26.5730  -11.4090   14.6700 C.ar    1  LIG1       -0.0023
      6  C         28.9350  -11.7820   14.4840 C.ar    1  LIG1       -0.0003
      7  C         28.8870  -11.4710   13.1410 C.ar    1  LIG1       -0.0000
      8  C         27.6840  -11.1650   12.5570 C.ar    1  LIG1       -0.0003
      9  C         26.5430  -11.0950   13.3180 C.ar    1  LIG1       -0.0026
     10  C         24.7470  -13.1200   17.7780 C.ar    1  LIG1        0.0537
     11  C         25.5850  -14.1370   17.3700 C.ar    1  LIG1        0.0059
     12  C         25.1150  -15.4490   17.2810 C.ar    1  LIG1        0.0204
     13  C         23.7900  -15.7240   17.5840 C.ar    1  LIG1        0.1270
     14  C         23.1430  -17.1850   20.5480 C.ar    1  LIG1        0.0907
     15  C         24.2240  -17.9130   21.0250 C.ar    1  LIG1        0.0138
     16  C         24.9050  -17.4380   22.1200 C.ar    1  LIG1       -0.0205
     17  C         24.5210  -16.2930   22.7790 C.ar    1  LIG1       -0.0042
     18  C         23.4530  -15.5820   22.2870 C.ar    1  LIG1        0.0011
     19  C         22.7750  -16.0150   21.1710 C.ar    1  LIG1        0.0180
     20  C         22.9390  -14.7160   17.9610 C.ar    1  LIG1        0.0204
     21  C         23.4190  -13.4270   18.0780 C.ar    1  LIG1        0.0059
     22  S         23.2390  -17.4010   17.7000 S.O2    1  LIG1        0.0928
     23  O         22.0290  -17.5440   16.9570 O.2     1  LIG1       -0.1483
     24  N         22.8830  -17.6290   19.2610 N.pl3   1  LIG1       -0.0966
     25  CL        26.3050  -18.3000   22.6660 C.3     1  LIG1        0.0311
     26  C         25.1760  -11.7050   17.9570 C.2     1  LIG1        0.2493
     27  O         25.2100  -11.2820   19.0800 O.2     1  LIG1       -0.2699
     28  N         25.4660  -10.9330   16.8780 N.am    1  LIG1       -0.2720
     29  C         25.3250   -7.1140   16.9440 C.3     1  LIG1        0.0018
     30  C         27.7720  -11.7870   15.2310 C.ar    1  LIG1       -0.0026
@<TRIPOS>BOND
     1     8     7   ar
     2     8     9   ar
     3     7     6   ar
     4     9     5   ar
     5     6    30   ar
     6     5    30   ar
     7     5     4    1
     8     4    28    1
     9    28     1    1
    10    28    26   am
    11     2    29    1
    12     2     1    1
    13    23    22    2
    14    12    11   ar
    15    12    13   ar
    16    11    10   ar
    17     3    22    2
    18    13    22    1
    19    13    20   ar
    20    22    24    1
    21    10    26    1
    22    10    21   ar
    23    26    27    2
    24    20    21   ar
    25    24    14    1
    26    14    15   ar
    27    14    19   ar
    28    15    16   ar
    29    19    18   ar
    30    16    25    1
    31    16    17   ar
    32    18    17   ar
@<TRIPOS>MOLECULE
ligands_in1_10.pdb
 30 32 0 0 0
SMALL
GASTEIGER

@<TRIPOS>ATOM
      1  C         25.9220   -9.5420   17.0200 C.3     1  LIG1        0.0940
      2  C         24.7840   -8.5430   16.8820 C.3     1  LIG1        0.0215
      3  O         24.3560  -18.2490   17.4420 O.2     1  LIG1       -0.1483
      4  C         25.2960  -11.3670   15.4850 C.3     1  LIG1        0.1204
      5  C         26.5660  -11.4120   14.6650 C.ar    1  LIG1       -0.0023
      6  C         28.9280  -11.7860   14.4750 C.ar    1  LIG1       -0.0003
      7  C         28.8780  -11.4750   13.1330 C.ar    1  LIG1       -0.0000
      8  C         27.6740  -11.1680   12.5500 C.ar    1  LIG1       -0.0003
      9  C         26.5340  -11.0980   13.3130 C.ar    1  LIG1       -0.0026
     10  C         24.7440  -13.1220   17.7760 C.ar    1  LIG1        0.0537
     11  C         25.5800  -14.1390   17.3660 C.ar    1  LIG1        0.0059
     12  C         25.1100  -15.4510   17.2780 C.ar    1  LIG1        0.0204
     13  C         23.7850  -15.7250   17.5830 C.ar    1  LIG1        0.1270
     14  C         23.1420  -17.1860   20.5480 C.ar    1  LIG1        0.0907
     15  C         24.2230  -17.9150   21.0230 C.ar    1  LIG1        0.0138
     16  C         24.9060  -17.4400   22.1170 C.ar    1  LIG1       -0.0205
     17  C         24.5230  -16.2960   22.7770 C.ar    1  LIG1       -0.0042
     18  C         23.4550  -15.5840   22.2860 C.ar    1  LIG1        0.0011
     19  C         22.7750  -16.0160   21.1720 C.ar    1  LIG1        0.0180
     20  C         22.9350  -14.7170   17.9610 C.ar    1  LIG1        0.0204
     21  C         23.4160  -13.4280   18.0780 C.ar    1  LIG1        0.0059
     22  S         23.2330  -17.4020   17.6990 S.O2    1  LIG1        0.0928
     23  O         22.0220  -17.5440   16.9580 O.2     1  LIG1       -0.1483
     24  N         22.8790  -17.6300   19.2610 N.pl3   1  LIG1       -0.0966
     25  CL        26.3060  -18.3040   22.6610 C.3     1  LIG1        0.0311
     26  C         25.1730  -11.7070   17.9540 C.2     1  LIG1        0.2493
     27  O         25.2100  -11.2840   19.0770 O.2     1  LIG1       -0.2699
     28  N         25.4630  -10.9350   16.8740 N.am    1  LIG1       -0.2720
     29  C         25.3240   -7.1160   16.9410 C.3     1  LIG1        0.0018
     30  C         27.7660  -11.7900   15.2240 C.ar    1  LIG1       -0.0026
@<TRIPOS>BOND
     1     8     7   ar
     2     8     9   ar
     3     7     6   ar
     4     9     5   ar
     5     6    30   ar
     6     5    30   ar
     7     5     4    1
     8     4    28    1
     9    28     1    1
    10    28    26   am
    11     2    29    1
    12     2     1    1
    13    23    22    2
    14    12    11   ar
    15    12    13   ar
    16    11    10   ar
    17     3    22    2
    18    13    22    1
    19    13    20   ar
    20    22    24    1
    21    10    26    1
    22    10    21   ar
    23    26    27    2
    24    20    21   ar
    25    24    14    1
    26    14    15   ar
    27    14    19   ar
    28    15    16   ar
    29    19    18   ar
    30    16    25    1
    31    16    17   ar
    32    18    17   ar
