
     RDKit          3D

 27 30  0  0  0  0  0  0  0  0999 V2000
   -6.5189   -2.7797   -0.8950 C   0  0  0  0  0  0  0  0  0  0  0  0
   -6.2933   -1.3602   -0.5355 C   0  0  0  0  0  0  0  0  0  0  0  0
   -7.4147   -0.5638   -0.3487 C   0  0  0  0  0  0  0  0  0  0  0  0
   -7.2953    0.7345    0.1133 C   0  0  0  0  0  0  0  0  0  0  0  0
   -6.0049    1.1815    0.3615 C   0  0  0  0  0  0  0  0  0  0  0  0
   -4.8906    0.5694   -0.1912 C   0  0  0  0  0  0  0  0  0  0  0  0
   -3.6219    1.0787    0.2356 N   0  0  0  0  0  0  0  0  0  0  0  0
   -2.5115    0.1763    0.2986 C   0  0  0  0  0  0  0  0  0  0  0  0
   -2.4146   -0.6295   -0.6673 O   0  0  0  0  0  0  0  0  0  0  0  0
   -1.4098    0.4868    1.1612 N   0  0  0  0  0  0  0  0  0  0  0  0
   -0.2895   -0.4530    1.0897 C   0  0  0  0  0  0  0  0  0  0  0  0
    0.2102   -0.3039   -0.3446 C   0  0  0  0  0  0  0  0  0  0  0  0
    0.7144    1.0651   -0.4391 N   0  0  0  0  0  0  0  0  0  0  0  0
    2.1272    1.1651   -0.6647 C   0  0  0  0  0  0  0  0  0  0  0  0
    3.1317    0.8262    0.1808 N   0  0  0  0  0  0  0  0  0  0  0  0
    4.2604    0.5394   -0.4995 C   0  0  0  0  0  0  0  0  0  0  0  0
    5.2530   -0.4365   -0.0196 C   0  0  0  0  0  0  0  0  0  0  0  0
    5.0146   -1.2009    1.1193 C   0  0  0  0  0  0  0  0  0  0  0  0
    5.9523   -2.0295    1.6752 C   0  0  0  0  0  0  0  0  0  0  0  0
    7.1375   -2.1902    0.9767 C   0  0  0  0  0  0  0  0  0  0  0  0
    7.2018   -1.7563   -0.3417 C   0  0  0  0  0  0  0  0  0  0  0  0
    6.1618   -1.0202   -0.8968 C   0  0  0  0  0  0  0  0  0  0  0  0
    4.5783    1.5528   -1.3442 N   0  0  0  0  0  0  0  0  0  0  0  0
    3.0272    2.0295   -1.8425 S   0  0  0  0  0  0  0  0  0  0  0  0
   -0.0657    2.1982    0.0019 C   0  0  0  0  0  0  0  0  0  0  0  0
   -0.9901    1.8874    1.1430 C   0  0  0  0  0  0  0  0  0  0  0  0
   -5.0495   -0.7674   -0.5372 C   0  0  0  0  0  0  0  0  0  0  0  0
  1  2  1  0
  2  3  2  0
  3  4  1  0
  4  5  2  0
  5  6  1  0
  6  7  1  0
  7  8  1  0
  8  9  2  0
  8 10  1  0
 10 11  1  0
 11 12  1  0
 12 13  1  0
 13 14  1  0
 14 15  2  0
 15 16  1  0
 16 17  1  0
 17 18  2  0
 18 19  1  0
 19 20  2  0
 20 21  1  0
 21 22  2  0
 16 23  2  0
 23 24  1  0
 13 25  1  0
 25 26  1  0
  6 27  2  0
 27  2  1  0
 26 10  1  0
 24 14  1  0
 22 17  1  0
M  END
>  <zinc_id>  (1) 
ZINC000034836571

>  <smiles>  (1) 
Cc1cccc(NC(=O)N2CCN(c3nc(-c4ccccc4)ns3)CC2)c1

$$$$
