@<TRIPOS>MOLECULE
*****_MODEL1
 35 41 0 0 0
SMALL
GASTEIGER

@<TRIPOS>ATOM
      1  C         43.7350   23.2170   67.1320 C.3     1  LIG1        0.1067
      2  C         44.2050   21.8120   67.8020 C.3     1  LIG1        0.0738
      3  C         45.8000   22.1160   67.4740 C.3     1  LIG1        0.2060
      4  O         45.8600   23.3140   68.3810 O.3     1  LIG1       -0.3354
      5  C         44.9650   23.6630   69.1570 C.3     1  LIG1        0.1457
      6  C         45.3470   25.1230   69.4920 C.3     1  LIG1        0.0348
      7  C         43.4610   23.9870   68.6440 C.3     1  LIG1        0.1583
      8  N         42.2440   22.7910   67.0030 N.3     1  LIG1       -0.2152
      9  C         41.9350   23.0070   66.0900 C.3     1  LIG1        0.1075
     10  O         42.8250   22.8000   69.3410 O.3     1  LIG1       -0.3497
     11  C         43.0880   22.9390   70.6870 C.3     1  LIG1        0.1742
     12  N         46.3170   21.0940   68.5670 N.ar    1  LIG1       -0.3039
     13  C         47.5900   21.3820   68.9420 C.ar    1  LIG1        0.0618
     14  C         48.3780   22.5200   68.9490 C.ar    1  LIG1        0.0172
     15  C         48.0490   20.3280   69.7250 C.ar    1  LIG1        0.0174
     16  C         49.3600   22.6860   69.8930 C.ar    1  LIG1        0.0015
     17  C         49.6710   21.7010   70.8190 C.ar    1  LIG1        0.0001
     18  C         49.1000   20.4590   70.5870 C.ar    1  LIG1        0.0015
     19  C         47.1570   19.2810   69.5240 C.ar    1  LIG1        0.0229
     20  C         47.4050   17.9110   69.4870 C.ar    1  LIG1        0.0543
     21  C         46.2230   19.8090   68.6390 C.ar    1  LIG1        0.0795
     22  C         46.4980   17.0200   68.9210 C.ar    1  LIG1        0.0055
     23  C         48.4770   17.0790   69.9900 C.2     1  LIG1        0.2649
     24  C         45.3930   17.5570   68.2930 C.ar    1  LIG1        0.0184
     25  C         47.0690   15.6540   68.9000 C.3     1  LIG1        0.1420
     26  C         44.3410   17.0070   67.5720 C.ar    1  LIG1        0.0189
     27  C         45.3840   18.8960   68.0140 C.ar    1  LIG1        0.0968
     28  C         43.9990   15.7080   67.2870 C.ar    1  LIG1        0.0015
     29  C         43.8760   18.0170   66.7420 C.ar    1  LIG1        0.0813
     30  C         43.1520   15.4630   66.2170 C.ar    1  LIG1        0.0001
     31  C         42.8890   16.4520   65.2810 C.ar    1  LIG1        0.0015
     32  C         42.9880   17.7710   65.7080 C.ar    1  LIG1        0.0191
     33  N         44.5950   19.1480   66.9450 N.ar    1  LIG1       -0.2439
     34  N         48.4690   15.8790   69.2060 N.am    1  LIG1       -0.1968
     35  O         49.4530   17.4200   70.6860 O.2     1  LIG1       -0.2684
@<TRIPOS>BOND
     1    31    32   ar
     2    31    30   ar
     3    32    29   ar
     4     9     8    1
     5    30    28   ar
     6    29    33   ar
     7    29    26   ar
     8    33    27   ar
     9     8     1    1
    10     1     2    1
    11     1     7    1
    12    28    26   ar
    13     3     2    1
    14     3     4    1
    15     3    12    1
    16    26    24   ar
    17    27    24   ar
    18    27    21   ar
    19    24    22   ar
    20     4     5    1
    21    12    21   ar
    22    12    13   ar
    23    21    19   ar
    24     7     5    1
    25     7    10    1
    26    25    22    1
    27    25    34    1
    28    22    20   ar
    29    13    14   ar
    30    13    15   ar
    31    14    16   ar
    32     5     6    1
    33    34    23   am
    34    10    11    1
    35    20    19   ar
    36    20    23    1
    37    19    15   ar
    38    15    18   ar
    39    16    17   ar
    40    23    35    2
    41    18    17   ar
@<TRIPOS>MOLECULE
*****_MODEL2
 35 41 0 0 0
SMALL
GASTEIGER

@<TRIPOS>ATOM
      1  C         44.9270   24.7170   68.1110 C.3     1  LIG1        0.1067
      2  C         45.4800   23.2080   67.8620 C.3     1  LIG1        0.0738
      3  C         43.9940   22.5450   68.1730 C.3     1  LIG1        0.2060
      4  O         43.3440   23.1980   66.9840 O.3     1  LIG1       -0.3354
      5  C         43.9420   23.8220   66.1020 C.3     1  LIG1        0.1457
      6  C         42.8090   24.6130   65.4090 C.3     1  LIG1        0.0348
      7  C         44.8750   25.1050   66.4380 C.3     1  LIG1        0.1583
      8  N         46.3460   25.3340   68.2780 N.3     1  LIG1       -0.2152
      9  C         46.3590   25.8700   69.1070 C.3     1  LIG1        0.1075
     10  O         46.1750   24.4280   66.0520 O.3     1  LIG1       -0.3497
     11  C         46.0740   24.0980   64.7170 C.3     1  LIG1        0.1742
     12  N         44.3330   21.1960   67.4160 N.ar    1  LIG1       -0.3039
     13  C         43.2020   20.5740   66.9960 C.ar    1  LIG1        0.0618
     14  C         41.9160   20.9800   66.6830 C.ar    1  LIG1        0.0172
     15  C         43.5580   19.3070   66.5450 C.ar    1  LIG1        0.0174
     16  C         41.1760   20.3040   65.7460 C.ar    1  LIG1        0.0015
     17  C         41.6340   19.1450   65.1370 C.ar    1  LIG1        0.0001
     18  C         42.7710   18.5820   65.6970 C.ar    1  LIG1        0.0015
     19  C         44.8450   19.0780   67.0170 C.ar    1  LIG1        0.0229
     20  C         45.4260   17.8850   67.4390 C.ar    1  LIG1        0.0543
     21  C         45.1570   20.2450   67.7050 C.ar    1  LIG1        0.0795
     22  C         46.5800   17.8690   68.2160 C.ar    1  LIG1        0.0055
     23  C         45.1190   16.4890   67.2040 C.2     1  LIG1        0.2649
     24  C         47.0640   19.0860   68.6530 C.ar    1  LIG1        0.0184
     25  C         46.9020   16.4830   68.6270 C.3     1  LIG1        0.1420
     26  C         48.1150   19.4560   69.4820 C.ar    1  LIG1        0.0189
     27  C         46.2600   20.1870   68.5470 C.ar    1  LIG1        0.0968
     28  C         49.0910   18.7260   70.1130 C.ar    1  LIG1        0.0015
     29  C         47.7810   20.7020   69.9900 C.ar    1  LIG1        0.0813
     30  C         49.7490   19.2900   71.1960 C.ar    1  LIG1        0.0001
     31  C         49.2480   20.4250   71.8150 C.ar    1  LIG1        0.0015
     32  C         48.4780   21.2830   71.0380 C.ar    1  LIG1        0.0191
     33  N         46.5850   21.1000   69.4900 N.ar    1  LIG1       -0.2439
     34  N         45.6940   15.7540   68.2920 N.am    1  LIG1       -0.1968
     35  O         44.2450   16.0100   66.4560 O.2     1  LIG1       -0.2684
@<TRIPOS>BOND
     1    11    10    1
     2    17    18   ar
     3    17    16   ar
     4     6     5    1
     5    18    15   ar
     6    16    14   ar
     7    10     7    1
     8     5     7    1
     9     5     4    1
    10     7     1    1
    11    35    23    2
    12    15    13   ar
    13    15    19   ar
    14    14    13   ar
    15     4     3    1
    16    13    12   ar
    17    19    20   ar
    18    19    21   ar
    19    23    20    1
    20    23    34   am
    21    12    21   ar
    22    12     3    1
    23    20    22   ar
    24    21    27   ar
    25     2     1    1
    26     2     3    1
    27     1     8    1
    28    22    25    1
    29    22    24   ar
    30     8     9    1
    31    34    25    1
    32    27    24   ar
    33    27    33   ar
    34    24    26   ar
    35    26    29   ar
    36    26    28   ar
    37    33    29   ar
    38    29    32   ar
    39    28    30   ar
    40    32    31   ar
    41    30    31   ar
@<TRIPOS>MOLECULE
*****_MODEL3
 35 41 0 0 0
SMALL
GASTEIGER

@<TRIPOS>ATOM
      1  C         13.4510   26.9190   92.2270 C.3     1  LIG1        0.1067
      2  C         14.2390   25.9110   91.2240 C.3     1  LIG1        0.0738
      3  C         15.7180   26.4670   91.7240 C.3     1  LIG1        0.2060
      4  O         15.5390   25.9670   93.1310 O.3     1  LIG1       -0.3354
      5  C         14.6130   25.2470   93.5170 C.3     1  LIG1        0.1457
      6  C         14.6740   25.3990   95.0540 C.3     1  LIG1        0.0348
      7  C         13.0600   25.6850   93.3560 C.3     1  LIG1        0.1583
      8  N         12.0870   26.7720   91.4910 N.3     1  LIG1       -0.2152
      9  C         11.7250   27.6750   91.3200 C.3     1  LIG1        0.1075
     10  O         12.7230   24.6090   92.3430 O.3     1  LIG1       -0.3497
     11  C         13.0870   23.4030   92.9030 C.3     1  LIG1        0.1742
     12  N         16.4800   25.1760   91.2180 N.ar    1  LIG1       -0.3039
     13  C         17.6350   24.9880   91.9070 C.ar    1  LIG1        0.0618
     14  C         18.1010   25.3520   93.1590 C.ar    1  LIG1        0.0172
     15  C         18.3500   23.9800   91.2700 C.ar    1  LIG1        0.0174
     16  C         19.0050   24.5650   93.8260 C.ar    1  LIG1        0.0015
     17  C         19.5600   23.4280   93.2550 C.ar    1  LIG1        0.0001
     18  C         19.3300   23.2660   91.8980 C.ar    1  LIG1        0.0015
     19  C         17.7600   23.8200   90.0210 C.ar    1  LIG1        0.0229
     20  C         18.3550   23.4960   88.8040 C.ar    1  LIG1        0.0543
     21  C         16.7230   24.7460   90.0250 C.ar    1  LIG1        0.0795
     22  C         17.7100   23.7270   87.5930 C.ar    1  LIG1        0.0055
     23  C         19.6050   22.8620   88.4440 C.2     1  LIG1        0.2649
     24  C         16.5040   24.3970   87.6360 C.ar    1  LIG1        0.0184
     25  C         18.6160   23.4130   86.4630 C.3     1  LIG1        0.1420
     26  C         15.6320   24.8600   86.6590 C.ar    1  LIG1        0.0189
     27  C         16.1490   25.0320   88.7940 C.ar    1  LIG1        0.0968
     28  C         15.6380   24.7510   85.2910 C.ar    1  LIG1        0.0015
     29  C         14.9230   25.9000   87.2420 C.ar    1  LIG1        0.0813
     30  C         14.8850   25.6480   84.5490 C.ar    1  LIG1        0.0001
     31  C         14.3770   26.7980   85.1320 C.ar    1  LIG1        0.0015
     32  C         14.1290   26.7590   86.5000 C.ar    1  LIG1        0.0191
     33  N         15.3230   26.0690   88.5270 N.ar    1  LIG1       -0.2439
     34  N         19.9090   23.2830   87.1070 N.am    1  LIG1       -0.1968
     35  O         20.4590   22.3610   89.2010 O.2     1  LIG1       -0.2684
@<TRIPOS>BOND
     1    30    31   ar
     2    30    28   ar
     3    31    32   ar
     4    28    26   ar
     5    25    34    1
     6    25    22    1
     7    32    29   ar
     8    26    29   ar
     9    26    24   ar
    10    34    23   am
    11    29    33   ar
    12    22    24   ar
    13    22    20   ar
    14    24    27   ar
    15    23    20    1
    16    23    35    2
    17    33    27   ar
    18    27    21   ar
    19    20    19   ar
    20    19    21   ar
    21    19    15   ar
    22    21    12   ar
    23    12     3    1
    24    12    13   ar
    25     2     3    1
    26     2     1    1
    27    15    18   ar
    28    15    13   ar
    29     9     8    1
    30     8     1    1
    31     3     4    1
    32    18    17   ar
    33    13    14   ar
    34     1     7    1
    35    10    11    1
    36    10     7    1
    37     4     5    1
    38    14    16   ar
    39    17    16   ar
    40     7     5    1
    41     5     6    1
@<TRIPOS>MOLECULE
*****_MODEL4
 35 42 0 0 0
SMALL
GASTEIGER

@<TRIPOS>ATOM
      1  C         21.5200   11.4300   86.2520 C.3     1  LIG1        0.1086
      2  C         19.9360   11.5440   85.9060 C.3     1  LIG1        0.0739
      3  C         19.9280   10.0640   85.1620 C.3     1  LIG1        0.2078
      4  O         20.2600    9.3170   86.4250 O.3     1  LIG1       -0.3186
      5  C         20.2960    9.8140   87.5550 C.3     1  LIG1        0.1915
      6  C         21.0820    8.7620   88.3700 C.3     1  LIG1        0.0566
      7  C         21.2570   11.0700   87.9110 C.3     1  LIG1        0.1761
      8  N         21.6860   12.9510   86.5390 N.3     1  LIG1       -0.2152
      9  C         22.6050   13.2180   86.2950 C.3     1  LIG1        0.1075
     10  O         20.1200   12.0480   88.1330 O.3     1  LIG1       -0.3478
     11  C         20.4250   12.7670   89.2690 C.3     1  LIG1        0.1743
     12  N         18.3620    9.8910   85.3120 N.ar    1  LIG1       -0.3039
     13  C         17.7040   10.4800   84.2810 C.ar    1  LIG1        0.0618
     14  C         18.0200   10.8040   82.9720 C.ar    1  LIG1        0.0172
     15  C         16.3470   10.4830   84.5890 C.ar    1  LIG1        0.0174
     16  C         17.0500   10.8250   82.0020 C.ar    1  LIG1        0.0015
     17  C         15.7100   10.6130   82.2900 C.ar    1  LIG1        0.0001
     18  C         15.3780   10.6140   83.6370 C.ar    1  LIG1        0.0015
     19  C         16.2620   10.1980   85.9470 C.ar    1  LIG1        0.0228
     20  C         15.3500   10.6730   86.8880 C.ar    1  LIG1        0.0543
     21  C         17.5860   10.0330   86.3350 C.ar    1  LIG1        0.0777
     22  C         15.6030   10.5940   88.2540 C.ar    1  LIG1        0.0054
     23  C         14.0280   11.2550   86.7890 C.2     1  LIG1        0.2649
     24  C         16.8440   10.1320   88.6410 C.ar    1  LIG1        0.0165
     25  C         14.5350   11.2850   89.0120 C.3     1  LIG1        0.1420
     26  C         17.4700    9.9870   89.8730 C.ar    1  LIG1        0.0170
     27  C         17.8340   10.0470   87.7010 C.ar    1  LIG1        0.0773
     28  C         17.0350   10.1990   91.1570 C.ar    1  LIG1        0.0015
     29  C         18.8320   10.0200   89.6160 C.ar    1  LIG1        0.0617
     30  C         17.9780   10.3750   92.1590 C.ar    1  LIG1        0.0001
     31  C         19.3050   10.6270   91.8450 C.ar    1  LIG1        0.0015
     32  C         19.7710   10.1430   90.6270 C.ar    1  LIG1        0.0172
     33  N         19.0480   10.1640   88.2850 N.ar    1  LIG1       -0.3054
     34  N         13.8260   12.0210   87.9830 N.am    1  LIG1       -0.1968
     35  O         13.3290   11.4050   85.7680 O.2     1  LIG1       -0.2684
@<TRIPOS>BOND
     1    16    17   ar
     2    16    14   ar
     3    17    18   ar
     4    14    13   ar
     5    18    15   ar
     6    13    15   ar
     7    13    12   ar
     8    15    19   ar
     9     3    12    1
    10     3     2    1
    11     3     4    1
    12    12    21   ar
    13    35    23    2
    14     2     1    1
    15    19    21   ar
    16    19    20   ar
    17     1     8    1
    18     1     7    1
    19     9     8    1
    20    21    27   ar
    21     4     5    1
    22    23    20    1
    23    23    34   am
    24    20    22   ar
    25     5     7    1
    26     5    33    1
    27     5     6    1
    28    27    33   ar
    29    27    24   ar
    30     7    10    1
    31    34    25    1
    32    10    11    1
    33    22    24   ar
    34    22    25    1
    35    33    29   ar
    36    24    26   ar
    37    29    26   ar
    38    29    32   ar
    39    26    28   ar
    40    32    31   ar
    41    28    30   ar
    42    31    30   ar
@<TRIPOS>MOLECULE
*****_MODEL5
 35 41 0 0 0
SMALL
GASTEIGER

@<TRIPOS>ATOM
      1  C         11.5720   28.6190   82.2970 C.3     1  LIG1        0.1067
      2  C         13.1740   28.3420   82.2440 C.3     1  LIG1        0.0738
      3  C         13.0640   27.6240   80.7560 C.3     1  LIG1        0.2060
      4  O         12.6040   28.8820   80.0730 O.3     1  LIG1       -0.3354
      5  C         12.5700   30.0010   80.5940 C.3     1  LIG1        0.1457
      6  C         11.6470   30.7970   79.6430 C.3     1  LIG1        0.0348
      7  C         11.7260   30.2940   81.9470 C.3     1  LIG1        0.1583
      8  N         11.5490   28.8730   83.8330 N.3     1  LIG1       -0.2152
      9  C         10.8360   28.3180   84.2310 C.3     1  LIG1        0.1075
     10  O         12.9460   30.5500   82.8110 O.3     1  LIG1       -0.3497
     11  C         13.5970   31.6390   82.2710 C.3     1  LIG1        0.1742
     12  N         14.5970   27.8470   80.4310 N.ar    1  LIG1       -0.3039
     13  C         14.8240   27.8040   79.0930 C.ar    1  LIG1        0.0618
     14  C         14.0630   28.0340   77.9600 C.ar    1  LIG1        0.0172
     15  C         16.2020   27.7840   78.8970 C.ar    1  LIG1        0.0174
     16  C         14.6440   28.5040   76.8090 C.ar    1  LIG1        0.0015
     17  C         16.0140   28.6860   76.6920 C.ar    1  LIG1        0.0001
     18  C         16.7800   28.1470   77.7150 C.ar    1  LIG1        0.0015
     19  C         16.7610   27.4790   80.1320 C.ar    1  LIG1        0.0229
     20  C         17.9010   26.7310   80.4190 C.ar    1  LIG1        0.0543
     21  C         15.6610   27.3540   80.9720 C.ar    1  LIG1        0.0795
     22  C         18.1310   26.2080   81.6870 C.ar    1  LIG1        0.0055
     23  C         19.0670   26.3570   79.6460 C.2     1  LIG1        0.2649
     24  C         17.1300   26.3590   82.6250 C.ar    1  LIG1        0.0184
     25  C         19.3410   25.3540   81.6770 C.3     1  LIG1        0.1420
     26  C         16.9690   25.9200   83.9330 C.ar    1  LIG1        0.0189
     27  C         15.8890   26.7480   82.2000 C.ar    1  LIG1        0.0968
     28  C         17.7970   25.2260   84.7800 C.ar    1  LIG1        0.0015
     29  C         15.6010   25.8840   84.1590 C.ar    1  LIG1        0.0813
     30  C         17.2380   24.5670   85.8640 C.ar    1  LIG1        0.0001
     31  C         15.8690   24.3600   85.9380 C.ar    1  LIG1        0.0015
     32  C         15.0530   25.2700   85.2730 C.ar    1  LIG1        0.0191
     33  N         14.9390   26.2950   83.0490 N.ar    1  LIG1       -0.2439
     34  N         19.6070   25.1800   80.2620 N.am    1  LIG1       -0.1968
     35  O         19.3680   26.7080   78.4890 O.2     1  LIG1       -0.2684
@<TRIPOS>BOND
     1    17    16   ar
     2    17    18   ar
     3    16    14   ar
     4    18    15   ar
     5    14    13   ar
     6    35    23    2
     7    15    13   ar
     8    15    19   ar
     9    13    12   ar
    10     6     5    1
    11    23    34   am
    12    23    20    1
    13     4     5    1
    14     4     3    1
    15    19    20   ar
    16    19    21   ar
    17    34    25    1
    18    20    22   ar
    19    12     3    1
    20    12    21   ar
    21     5     7    1
    22     3     2    1
    23    21    27   ar
    24    25    22    1
    25    22    24   ar
    26     7     1    1
    27     7    10    1
    28    27    24   ar
    29    27    33   ar
    30     2     1    1
    31    11    10    1
    32     1     8    1
    33    24    26   ar
    34    33    29   ar
    35     8     9    1
    36    26    29   ar
    37    26    28   ar
    38    29    32   ar
    39    28    30   ar
    40    32    31   ar
    41    30    31   ar
@<TRIPOS>MOLECULE
*****_MODEL6
 35 41 0 0 0
SMALL
GASTEIGER

@<TRIPOS>ATOM
      1  C         23.0680    6.1260   70.7470 C.3     1  LIG1        0.1067
      2  C         24.4810    6.9120   70.5780 C.3     1  LIG1        0.0738
      3  C         24.0050    7.5890   69.1430 C.3     1  LIG1        0.2060
      4  O         22.8960    8.3860   69.7740 O.3     1  LIG1       -0.3354
      5  C         22.7030    8.4960   70.9890 C.3     1  LIG1        0.1457
      6  C         21.2530    9.0250   71.0620 C.3     1  LIG1        0.0348
      7  C         22.4700    7.2060   71.9430 C.3     1  LIG1        0.1583
      8  N         23.6130    5.1360   71.8180 N.3     1  LIG1       -0.2152
      9  C         23.3420    4.2210   71.5640 C.3     1  LIG1        0.1075
     10  O         23.7700    7.3710   72.7060 O.3     1  LIG1       -0.3497
     11  C         23.5780    8.3980   73.6060 C.3     1  LIG1        0.1742
     12  N         25.0730    8.7540   69.2300 N.ar    1  LIG1       -0.3039
     13  C         24.7240    9.7980   68.4360 C.ar    1  LIG1        0.0618
     14  C         23.5340   10.2860   67.9230 C.ar    1  LIG1        0.0172
     15  C         25.8020   10.6760   68.3910 C.ar    1  LIG1        0.0174
     16  C         23.3740   11.6260   67.6760 C.ar    1  LIG1        0.0015
     17  C         24.4080   12.5370   67.8410 C.ar    1  LIG1        0.0001
     18  C         25.6650   11.9880   68.0380 C.ar    1  LIG1        0.0015
     19  C         26.8920    9.9720   68.8890 C.ar    1  LIG1        0.0229
     20  C         28.2320   10.0480   68.5150 C.ar    1  LIG1        0.0543
     21  C         26.3640    8.7260   69.2060 C.ar    1  LIG1        0.0795
     22  C         29.1380    9.0420   68.8350 C.ar    1  LIG1        0.0055
     23  C         29.0200   11.0540   67.8350 C.2     1  LIG1        0.2649
     24  C         28.6340    7.9070   69.4390 C.ar    1  LIG1        0.0184
     25  C         30.4500    9.3160   68.2070 C.3     1  LIG1        0.1420
     26  C         29.2000    6.6990   69.8270 C.ar    1  LIG1        0.0189
     27  C         27.2810    7.7090   69.4350 C.ar    1  LIG1        0.0968
     28  C         30.4910    6.2360   69.8010 C.ar    1  LIG1        0.0015
     29  C         28.1610    5.7800   69.8450 C.ar    1  LIG1        0.0813
     30  C         30.7090    4.8680   69.8570 C.ar    1  LIG1        0.0001
     31  C         29.6670    3.9760   69.6480 C.ar    1  LIG1        0.0015
     32  C         28.3850    4.4170   69.9550 C.ar    1  LIG1        0.0191
     33  N         27.0000    6.3880   69.4990 N.ar    1  LIG1       -0.2439
     34  N         30.1470   10.3760   67.2640 N.am    1  LIG1       -0.1968
     35  O         28.6660   12.1920   67.4710 O.2     1  LIG1       -0.2684
@<TRIPOS>BOND
     1    34    23   am
     2    34    25    1
     3    35    23    2
     4    16    17   ar
     5    16    14   ar
     6    23    20    1
     7    17    18   ar
     8    14    13   ar
     9    18    15   ar
    10    25    22    1
    11    15    13   ar
    12    15    19   ar
    13    13    12   ar
    14    20    22   ar
    15    20    19   ar
    16    22    24   ar
    17    19    21   ar
    18     3    12    1
    19     3     4    1
    20     3     2    1
    21    21    12   ar
    22    21    27   ar
    23    27    24   ar
    24    27    33   ar
    25    24    26   ar
    26    33    29   ar
    27    31    30   ar
    28    31    32   ar
    29     4     5    1
    30    28    26   ar
    31    28    30   ar
    32    26    29   ar
    33    29    32   ar
    34     2     1    1
    35     1     8    1
    36     1     7    1
    37     5     6    1
    38     5     7    1
    39     9     8    1
    40     7    10    1
    41    10    11    1
@<TRIPOS>MOLECULE
*****_MODEL7
 35 41 0 0 0
SMALL
GASTEIGER

@<TRIPOS>ATOM
      1  C         64.5880   36.3910   57.4690 C.3     1  LIG1        0.1067
      2  C         65.1010   35.6600   58.8270 C.3     1  LIG1        0.0738
      3  C         64.0790   34.3770   58.5980 C.3     1  LIG1        0.2060
      4  O         64.7580   33.9350   57.3310 O.3     1  LIG1       -0.3354
      5  C         65.8160   34.3990   56.8930 C.3     1  LIG1        0.1457
      6  C         65.8200   33.9230   55.4230 C.3     1  LIG1        0.0348
      7  C         65.9930   35.9780   56.5700 C.3     1  LIG1        0.1583
      8  N         65.1670   37.7820   57.8600 N.3     1  LIG1       -0.2152
      9  C         64.5600   38.4820   57.5180 C.3     1  LIG1        0.1075
     10  O         66.9990   36.2270   57.6760 O.3     1  LIG1       -0.3497
     11  C         68.1500   35.5520   57.3310 C.3     1  LIG1        0.1742
     12  N         64.9150   33.4200   59.5400 N.ar    1  LIG1       -0.3039
     13  C         64.6920   32.1160   59.2350 C.ar    1  LIG1        0.0618
     14  C         64.2860   31.4280   58.1040 C.ar    1  LIG1        0.0172
     15  C         65.2770   31.3410   60.2320 C.ar    1  LIG1        0.0174
     16  C         64.7080   30.1420   57.8770 C.ar    1  LIG1        0.0015
     17  C         65.4800   29.4430   58.7940 C.ar    1  LIG1        0.0001
     18  C         65.5990   30.0280   60.0460 C.ar    1  LIG1        0.0015
     19  C         65.5460   32.2080   61.2840 C.ar    1  LIG1        0.0229
     20  C         65.5010   31.9650   62.6550 C.ar    1  LIG1        0.0543
     21  C         65.1080   33.4420   60.8170 C.ar    1  LIG1        0.0795
     22  C         65.4370   33.0040   63.5790 C.ar    1  LIG1        0.0055
     23  C         65.5570   30.7600   63.4560 C.2     1  LIG1        0.2649
     24  C         65.3030   34.2850   63.0820 C.ar    1  LIG1        0.0184
     25  C         65.2690   32.4620   64.9470 C.3     1  LIG1        0.1420
     26  C         65.1380   35.5290   63.6760 C.ar    1  LIG1        0.0189
     27  C         64.9640   34.4440   61.7670 C.ar    1  LIG1        0.0968
     28  C         65.1150   35.9270   64.9900 C.ar    1  LIG1        0.0015
     29  C         64.5170   36.3260   62.7260 C.ar    1  LIG1        0.0813
     30  C         64.5260   37.1410   65.3060 C.ar    1  LIG1        0.0001
     31  C         63.7250   37.8010   64.3870 C.ar    1  LIG1        0.0015
     32  C         63.9780   37.5640   63.0400 C.ar    1  LIG1        0.0191
     33  N         64.3170   35.6180   61.5880 N.ar    1  LIG1       -0.2439
     34  N         64.9350   31.0710   64.7100 N.am    1  LIG1       -0.1968
     35  O         65.7460   29.5900   63.0710 O.2     1  LIG1       -0.2684
@<TRIPOS>BOND
     1     6     5    1
     2     7     5    1
     3     7     1    1
     4     7    10    1
     5     5     4    1
     6     4     3    1
     7    11    10    1
     8     1     8    1
     9     1     2    1
    10     9     8    1
    11    16    14   ar
    12    16    17   ar
    13    14    13   ar
    14     3     2    1
    15     3    12    1
    16    17    18   ar
    17    13    12   ar
    18    13    15   ar
    19    12    21   ar
    20    18    15   ar
    21    15    19   ar
    22    21    19   ar
    23    21    27   ar
    24    19    20   ar
    25    33    27   ar
    26    33    29   ar
    27    27    24   ar
    28    20    23    1
    29    20    22   ar
    30    29    32   ar
    31    29    26   ar
    32    32    31   ar
    33    35    23    2
    34    24    22   ar
    35    24    26   ar
    36    23    34   am
    37    22    25    1
    38    26    28   ar
    39    31    30   ar
    40    34    25    1
    41    28    30   ar
@<TRIPOS>MOLECULE
*****_MODEL8
 35 41 0 0 0
SMALL
GASTEIGER

@<TRIPOS>ATOM
      1  C         20.8070   12.0860   88.1760 C.3     1  LIG1        0.1067
      2  C         19.9580   10.7550   87.7900 C.3     1  LIG1        0.0738
      3  C         21.1960    9.7540   88.2480 C.3     1  LIG1        0.2060
      4  O         21.1270   10.1670   89.6930 O.3     1  LIG1       -0.3354
      5  C         20.2470   10.8790   90.1860 C.3     1  LIG1        0.1457
      6  C         20.8750   11.3270   91.5260 C.3     1  LIG1        0.0348
      7  C         19.9340   12.3700   89.6290 C.3     1  LIG1        0.1583
      8  N         19.8930   13.0470   87.3610 N.3     1  LIG1       -0.2152
      9  C         20.4670   13.6240   86.8010 C.3     1  LIG1        0.1075
     10  O         18.5610   12.0240   89.0890 O.3     1  LIG1       -0.3497
     11  C         17.8570   11.4460   90.1240 C.3     1  LIG1        0.1742
     12  N         20.2460    8.5010   88.4210 N.ar    1  LIG1       -0.3039
     13  C         20.8210    7.5560   89.2090 C.ar    1  LIG1        0.0618
     14  C         21.7820    7.5610   90.2050 C.ar    1  LIG1        0.0172
     15  C         20.0380    6.4080   89.1350 C.ar    1  LIG1        0.0174
     16  C         21.7470    6.6350   91.2170 C.ar    1  LIG1        0.0015
     17  C         20.8160    5.6070   91.2480 C.ar    1  LIG1        0.0001
     18  C         20.0800    5.4300   90.0860 C.ar    1  LIG1        0.0015
     19  C         19.1970    6.5860   88.0430 C.ar    1  LIG1        0.0229
     20  C         18.7180    5.6390   87.1410 C.ar    1  LIG1        0.0543
     21  C         19.5430    7.8430   87.5600 C.ar    1  LIG1        0.0795
     22  C         18.1930    6.0070   85.9060 C.ar    1  LIG1        0.0055
     23  C         18.5690    4.2000   87.1920 C.2     1  LIG1        0.2649
     24  C         18.2720    7.3400   85.5570 C.ar    1  LIG1        0.0184
     25  C         17.8820    4.8020   85.1020 C.3     1  LIG1        0.1420
     26  C         17.9340    8.0520   84.4140 C.ar    1  LIG1        0.0189
     27  C         19.0860    8.1610   86.2880 C.ar    1  LIG1        0.0968
     28  C         17.3360    7.6750   83.2370 C.ar    1  LIG1        0.0015
     29  C         18.7260    9.1910   84.4250 C.ar    1  LIG1        0.0813
     30  C         17.4960    8.4820   82.1210 C.ar    1  LIG1        0.0001
     31  C         18.4620    9.4760   82.0990 C.ar    1  LIG1        0.0015
     32  C         18.8380   10.0220   83.3220 C.ar    1  LIG1        0.0191
     33  N         19.5100    9.1980   85.5300 N.ar    1  LIG1       -0.2439
     34  N         18.5450    3.7400   85.8350 N.am    1  LIG1       -0.1968
     35  O         18.7840    3.4390   88.1560 O.2     1  LIG1       -0.2684
@<TRIPOS>BOND
     1    31    30   ar
     2    31    32   ar
     3    30    28   ar
     4    28    26   ar
     5    32    29   ar
     6    26    29   ar
     7    26    24   ar
     8    29    33   ar
     9    25    34    1
    10    25    22    1
    11    33    27   ar
    12    24    22   ar
    13    24    27   ar
    14    34    23   am
    15    22    20   ar
    16    27    21   ar
    17     9     8    1
    18    20    23    1
    19    20    19   ar
    20    23    35    2
    21     8     1    1
    22    21    19   ar
    23    21    12   ar
    24     2     1    1
    25     2     3    1
    26    19    15   ar
    27     1     7    1
    28     3    12    1
    29     3     4    1
    30    12    13   ar
    31    10     7    1
    32    10    11    1
    33    15    13   ar
    34    15    18   ar
    35    13    14   ar
    36     7     5    1
    37     4     5    1
    38    18    17   ar
    39     5     6    1
    40    14    16   ar
    41    16    17   ar
@<TRIPOS>MOLECULE
*****_MODEL9
 35 41 0 0 0
SMALL
GASTEIGER

@<TRIPOS>ATOM
      1  C         17.5520    4.1460   86.5280 C.3     1  LIG1        0.1067
      2  C         18.4040    5.4330   86.0190 C.3     1  LIG1        0.0738
      3  C         18.1210    6.2580   87.4280 C.3     1  LIG1        0.2060
      4  O         18.8830    5.2730   88.2720 O.3     1  LIG1       -0.3354
      5  C         19.5670    4.3430   87.8350 C.3     1  LIG1        0.1457
      6  C         19.7470    3.4350   89.0730 C.3     1  LIG1        0.0348
      7  C         18.9480    3.2020   86.8650 C.3     1  LIG1        0.1583
      8  N         17.4010    3.5360   85.1040 N.3     1  LIG1       -0.2152
      9  C         16.4480    3.3240   84.9540 C.3     1  LIG1        0.1075
     10  O         19.7480    3.6160   85.6460 O.3     1  LIG1       -0.3497
     11  C         20.2760    2.4640   85.1030 C.3     1  LIG1        0.1742
     12  N         19.3500    7.2320   87.2150 N.ar    1  LIG1       -0.3039
     13  C         19.7910    7.7280   88.4000 C.ar    1  LIG1        0.0618
     14  C         19.7430    7.3090   89.7190 C.ar    1  LIG1        0.0172
     15  C         20.7130    8.7320   88.1230 C.ar    1  LIG1        0.0174
     16  C         20.7380    7.6500   90.6000 C.ar    1  LIG1        0.0015
     17  C         21.7820    8.4930   90.2460 C.ar    1  LIG1        0.0001
     18  C         21.6360    9.1540   89.0360 C.ar    1  LIG1        0.0015
     19  C         20.5510    9.0410   86.7770 C.ar    1  LIG1        0.0229
     20  C         20.6740   10.2730   86.1380 C.ar    1  LIG1        0.0543
     21  C         19.5460    8.1770   86.3570 C.ar    1  LIG1        0.0795
     22  C         20.1340   10.4980   84.8750 C.ar    1  LIG1        0.0055
     23  C         21.3430   11.5110   86.4810 C.2     1  LIG1        0.2649
     24  C         19.3700    9.4880   84.3260 C.ar    1  LIG1        0.0184
     25  C         20.2980   11.9200   84.4950 C.3     1  LIG1        0.1420
     26  C         18.6300    9.3780   83.1560 C.ar    1  LIG1        0.0189
     27  C         18.9550    8.4670   85.1350 C.ar    1  LIG1        0.0968
     28  C         18.4540   10.2280   82.0930 C.ar    1  LIG1        0.0015
     29  C         17.6670    8.4100   83.4030 C.ar    1  LIG1        0.0813
     30  C         17.3520   10.0470   81.2710 C.ar    1  LIG1        0.0001
     31  C         16.3020    9.2320   81.6650 C.ar    1  LIG1        0.0015
     32  C         16.5970    8.1990   82.5480 C.ar    1  LIG1        0.0191
     33  N         17.8080    7.9290   84.6630 N.ar    1  LIG1       -0.2439
     34  N         20.6880   12.5500   85.7410 N.am    1  LIG1       -0.1968
     35  O         22.0730   11.7430   87.4630 O.2     1  LIG1       -0.2684
@<TRIPOS>BOND
     1    30    31   ar
     2    30    28   ar
     3    31    32   ar
     4    28    26   ar
     5    32    29   ar
     6    26    29   ar
     7    26    24   ar
     8    29    33   ar
     9    24    22   ar
    10    24    27   ar
    11    25    22    1
    12    25    34    1
    13    33    27   ar
    14    22    20   ar
    15     9     8    1
    16    11    10    1
    17     8     1    1
    18    27    21   ar
    19    10     7    1
    20    34    23   am
    21     2     1    1
    22     2     3    1
    23    20    23    1
    24    20    19   ar
    25    21    19   ar
    26    21    12   ar
    27    23    35    2
    28     1     7    1
    29    19    15   ar
    30     7     5    1
    31    12     3    1
    32    12    13   ar
    33     3     4    1
    34     5     4    1
    35     5     6    1
    36    15    13   ar
    37    15    18   ar
    38    13    14   ar
    39    18    17   ar
    40    14    16   ar
    41    17    16   ar
@<TRIPOS>MOLECULE
*****_MODEL10
 35 41 0 0 0
SMALL
GASTEIGER

@<TRIPOS>ATOM
      1  C         13.0360   10.2490   87.9480 C.3     1  LIG1        0.1067
      2  C         14.5630    9.9870   87.4550 C.3     1  LIG1        0.0738
      3  C         15.1130   11.3440   88.2310 C.3     1  LIG1        0.2060
      4  O         14.7790   10.8160   89.5990 O.3     1  LIG1       -0.3354
      5  C         14.4050    9.6650   89.8450 C.3     1  LIG1        0.1457
      6  C         13.8060    9.7920   91.2640 C.3     1  LIG1        0.0348
      7  C         13.0860    9.0240   89.1530 C.3     1  LIG1        0.1583
      8  N         12.4090    9.2850   86.8990 N.3     1  LIG1       -0.2152
      9  C         11.6610    9.7520   86.4530 C.3     1  LIG1        0.1075
     10  O         13.8500    7.9980   88.3390 O.3     1  LIG1       -0.3497
     11  C         14.4220    7.1210   89.2350 C.3     1  LIG1        0.1742
     12  N         16.6130   10.8370   88.2540 N.ar    1  LIG1       -0.3039
     13  C         17.3100   11.4200   89.2630 C.ar    1  LIG1        0.0618
     14  C         16.9830   11.9840   90.4840 C.ar    1  LIG1        0.0172
     15  C         18.6530   11.1030   89.0890 C.ar    1  LIG1        0.0174
     16  C         17.8660   11.9450   91.5340 C.ar    1  LIG1        0.0015
     17  C         19.1460   11.4260   91.4050 C.ar    1  LIG1        0.0001
     18  C         19.5600   11.1690   90.1070 C.ar    1  LIG1        0.0015
     19  C         18.7680   10.6170   87.7920 C.ar    1  LIG1        0.0229
     20  C         19.8220   10.7570   86.8910 C.ar    1  LIG1        0.0543
     21  C         17.4680   10.6710   87.3020 C.ar    1  LIG1        0.0795
     22  C         19.6520   10.5380   85.5280 C.ar    1  LIG1        0.0055
     23  C         21.2280   11.0670   87.0440 C.2     1  LIG1        0.2649
     24  C         18.3690   10.2870   85.0830 C.ar    1  LIG1        0.0184
     25  C         20.8920   10.8820   84.7960 C.3     1  LIG1        0.1420
     26  C         17.8120   10.0990   83.8250 C.ar    1  LIG1        0.0189
     27  C         17.3220   10.5400   85.9270 C.ar    1  LIG1        0.0968
     28  C         18.3690   10.0330   82.5720 C.ar    1  LIG1        0.0015
     29  C         16.4740   10.4450   83.9430 C.ar    1  LIG1        0.0813
     30  C         17.5560   10.2540   81.4710 C.ar    1  LIG1        0.0001
     31  C         16.2960   10.8120   81.6210 C.ar    1  LIG1        0.0015
     32  C         15.6550   10.6110   82.8390 C.ar    1  LIG1        0.0191
     33  N         16.2040   10.8170   85.2190 N.ar    1  LIG1       -0.2439
     34  N         21.6700   11.5980   85.7880 N.am    1  LIG1       -0.1968
     35  O         21.8720   11.2150   88.1010 O.2     1  LIG1       -0.2684
@<TRIPOS>BOND
     1    30    31   ar
     2    30    28   ar
     3    31    32   ar
     4    28    26   ar
     5    32    29   ar
     6    26    29   ar
     7    26    24   ar
     8    29    33   ar
     9    25    22    1
    10    25    34    1
    11    24    22   ar
    12    24    27   ar
    13    33    27   ar
    14    22    20   ar
    15    34    23   am
    16    27    21   ar
    17     9     8    1
    18    20    23    1
    19    20    19   ar
    20     8     1    1
    21    23    35    2
    22    21    19   ar
    23    21    12   ar
    24     2     1    1
    25     2     3    1
    26    19    15   ar
    27     1     7    1
    28     3    12    1
    29     3     4    1
    30    12    13   ar
    31    10     7    1
    32    10    11    1
    33    15    13   ar
    34    15    18   ar
    35     7     5    1
    36    13    14   ar
    37     4     5    1
    38     5     6    1
    39    18    17   ar
    40    14    16   ar
    41    17    16   ar
