MODEL 1
REMARK NAME *****_MODEL1
REMARK  4 active torsions:
REMARK  status: ('A' for Active; 'I' for Inactive)
REMARK    1  A    between atoms: C_3  and  N_2 
REMARK    2  A    between atoms: N_29  and  C_5 
REMARK    3  A    between atoms: C_7  and  N_12 
REMARK    4  A    between atoms: C_9  and  O_10 
ROOT
ATOM      1  C   LIG d   1      43.735  23.217  67.132  0.00  0.00     0.139 C 
ATOM      2  C   LIG d   1      44.205  21.812  67.802  0.00  0.00     0.081 C 
ATOM      3  C   LIG d   1      45.800  22.116  67.474  0.00  0.00     0.209 C 
ATOM      4  O   LIG d   1      45.860  23.314  68.381  0.00  0.00    -0.319 OA
ATOM      5  C   LIG d   1      44.965  23.663  69.157  0.00  0.00     0.192 C 
ATOM      6  C   LIG d   1      45.347  25.123  69.492  0.00  0.00     0.057 C 
ATOM      7  C   LIG d   1      43.461  23.987  68.644  0.00  0.00     0.183 C 
ENDROOT
BRANCH   1   8
ATOM      8  N   LIG d   1      42.244  22.791  67.003  0.00  0.00    -0.267 NA
ATOM      9  C   LIG d   1      41.935  23.007  66.090  0.00  0.00     0.113 C 
ENDBRANCH   1   8
BRANCH   7  10
ATOM     10  O   LIG d   1      42.825  22.800  69.341  0.00  0.00    -0.348 OA
ATOM     11  C   LIG d   1      43.088  22.939  70.687  0.00  0.00     0.174 C 
ENDBRANCH   7  10
BRANCH   3  12
ATOM     12  N   LIG d   1      46.317  21.094  68.567  0.00  0.00    -0.304 N 
ATOM     13  C   LIG d   1      47.590  21.382  68.942  0.00  0.00     0.062 C 
ATOM     14  C   LIG d   1      48.378  22.520  68.949  0.00  0.00     0.017 C 
ATOM     15  C   LIG d   1      48.049  20.328  69.725  0.00  0.00     0.018 C 
ATOM     16  C   LIG d   1      49.360  22.686  69.893  0.00  0.00     0.002 C 
ATOM     17  C   LIG d   1      49.671  21.701  70.819  0.00  0.00     0.000 C 
ATOM     18  C   LIG d   1      49.100  20.459  70.587  0.00  0.00     0.002 C 
ATOM     19  C   LIG d   1      47.157  19.281  69.524  0.00  0.00     0.023 C 
ATOM     20  C   LIG d   1      47.405  17.911  69.487  0.00  0.00     0.057 C 
ATOM     21  C   LIG d   1      46.223  19.809  68.639  0.00  0.00     0.078 C 
ATOM     22  C   LIG d   1      46.498  17.020  68.921  0.00  0.00     0.008 C 
ATOM     23  C   LIG d   1      48.477  17.079  69.990  0.00  0.00     0.275 C 
ATOM     24  C   LIG d   1      45.393  17.557  68.293  0.00  0.00     0.017 C 
ATOM     25  C   LIG d   1      47.069  15.654  68.900  0.00  0.00     0.155 C 
ATOM     26  C   LIG d   1      44.341  17.007  67.572  0.00  0.00     0.017 C 
ATOM     27  C   LIG d   1      45.384  18.896  68.014  0.00  0.00     0.077 C 
ATOM     28  C   LIG d   1      43.999  15.708  67.287  0.00  0.00     0.002 C 
ATOM     29  C   LIG d   1      43.876  18.017  66.742  0.00  0.00     0.062 C 
ATOM     30  C   LIG d   1      43.152  15.463  66.217  0.00  0.00     0.000 C 
ATOM     31  C   LIG d   1      42.889  16.452  65.281  0.00  0.00     0.002 C 
ATOM     32  C   LIG d   1      42.988  17.771  65.708  0.00  0.00     0.017 C 
ATOM     33  N   LIG d   1      44.595  19.148  66.945  0.00  0.00    -0.306 NA
ATOM     34  N   LIG d   1      48.469  15.879  69.206  0.00  0.00    -0.229 NA
ATOM     35  O   LIG d   1      49.453  17.420  70.686  0.00  0.00    -0.266 OA
ENDBRANCH   3  12
TORSDOF 4
ENDMDL
MODEL 2
REMARK NAME *****_MODEL2
REMARK  4 active torsions:
REMARK  status: ('A' for Active; 'I' for Inactive)
REMARK    1  A    between atoms: C_3  and  N_2 
REMARK    2  A    between atoms: N_29  and  C_5 
REMARK    3  A    between atoms: C_7  and  N_12 
REMARK    4  A    between atoms: C_9  and  O_10 
ROOT
ATOM      1  C   LIG d   1      44.927  24.717  68.111  0.00  0.00     0.139 C 
ATOM      2  C   LIG d   1      45.480  23.208  67.862  0.00  0.00     0.081 C 
ATOM      3  C   LIG d   1      43.994  22.545  68.173  0.00  0.00     0.209 C 
ATOM      4  O   LIG d   1      43.344  23.198  66.984  0.00  0.00    -0.319 OA
ATOM      5  C   LIG d   1      43.942  23.822  66.102  0.00  0.00     0.192 C 
ATOM      6  C   LIG d   1      42.809  24.613  65.409  0.00  0.00     0.057 C 
ATOM      7  C   LIG d   1      44.875  25.105  66.438  0.00  0.00     0.183 C 
ENDROOT
BRANCH   1   8
ATOM      8  N   LIG d   1      46.346  25.334  68.278  0.00  0.00    -0.267 NA
ATOM      9  C   LIG d   1      46.359  25.870  69.107  0.00  0.00     0.113 C 
ENDBRANCH   1   8
BRANCH   7  10
ATOM     10  O   LIG d   1      46.175  24.428  66.052  0.00  0.00    -0.348 OA
ATOM     11  C   LIG d   1      46.074  24.098  64.717  0.00  0.00     0.174 C 
ENDBRANCH   7  10
BRANCH   3  12
ATOM     12  N   LIG d   1      44.333  21.196  67.416  0.00  0.00    -0.304 N 
ATOM     13  C   LIG d   1      43.202  20.574  66.996  0.00  0.00     0.062 C 
ATOM     14  C   LIG d   1      41.916  20.980  66.683  0.00  0.00     0.017 C 
ATOM     15  C   LIG d   1      43.558  19.307  66.545  0.00  0.00     0.018 C 
ATOM     16  C   LIG d   1      41.176  20.304  65.746  0.00  0.00     0.002 C 
ATOM     17  C   LIG d   1      41.634  19.145  65.137  0.00  0.00     0.000 C 
ATOM     18  C   LIG d   1      42.771  18.582  65.697  0.00  0.00     0.002 C 
ATOM     19  C   LIG d   1      44.845  19.078  67.017  0.00  0.00     0.023 C 
ATOM     20  C   LIG d   1      45.426  17.885  67.439  0.00  0.00     0.057 C 
ATOM     21  C   LIG d   1      45.157  20.245  67.705  0.00  0.00     0.078 C 
ATOM     22  C   LIG d   1      46.580  17.869  68.216  0.00  0.00     0.008 C 
ATOM     23  C   LIG d   1      45.119  16.489  67.204  0.00  0.00     0.275 C 
ATOM     24  C   LIG d   1      47.064  19.086  68.653  0.00  0.00     0.017 C 
ATOM     25  C   LIG d   1      46.902  16.483  68.627  0.00  0.00     0.155 C 
ATOM     26  C   LIG d   1      48.115  19.456  69.482  0.00  0.00     0.017 C 
ATOM     27  C   LIG d   1      46.260  20.187  68.547  0.00  0.00     0.077 C 
ATOM     28  C   LIG d   1      49.091  18.726  70.113  0.00  0.00     0.002 C 
ATOM     29  C   LIG d   1      47.781  20.702  69.990  0.00  0.00     0.062 C 
ATOM     30  C   LIG d   1      49.749  19.290  71.196  0.00  0.00     0.000 C 
ATOM     31  C   LIG d   1      49.248  20.425  71.815  0.00  0.00     0.002 C 
ATOM     32  C   LIG d   1      48.478  21.283  71.038  0.00  0.00     0.017 C 
ATOM     33  N   LIG d   1      46.585  21.100  69.490  0.00  0.00    -0.306 NA
ATOM     34  N   LIG d   1      45.694  15.754  68.292  0.00  0.00    -0.229 NA
ATOM     35  O   LIG d   1      44.245  16.010  66.456  0.00  0.00    -0.266 OA
ENDBRANCH   3  12
TORSDOF 4
ENDMDL
MODEL 3
REMARK NAME *****_MODEL3
REMARK  4 active torsions:
REMARK  status: ('A' for Active; 'I' for Inactive)
REMARK    1  A    between atoms: C_3  and  N_2 
REMARK    2  A    between atoms: N_29  and  C_5 
REMARK    3  A    between atoms: C_7  and  N_12 
REMARK    4  A    between atoms: C_9  and  O_10 
ROOT
ATOM      1  C   LIG d   1      13.451  26.919  92.227  0.00  0.00     0.139 C 
ATOM      2  C   LIG d   1      14.239  25.911  91.224  0.00  0.00     0.081 C 
ATOM      3  C   LIG d   1      15.718  26.467  91.724  0.00  0.00     0.209 C 
ATOM      4  O   LIG d   1      15.539  25.967  93.131  0.00  0.00    -0.319 OA
ATOM      5  C   LIG d   1      14.613  25.247  93.517  0.00  0.00     0.192 C 
ATOM      6  C   LIG d   1      14.674  25.399  95.054  0.00  0.00     0.057 C 
ATOM      7  C   LIG d   1      13.060  25.685  93.356  0.00  0.00     0.183 C 
ENDROOT
BRANCH   1   8
ATOM      8  N   LIG d   1      12.087  26.772  91.491  0.00  0.00    -0.267 NA
ATOM      9  C   LIG d   1      11.725  27.675  91.320  0.00  0.00     0.113 C 
ENDBRANCH   1   8
BRANCH   7  10
ATOM     10  O   LIG d   1      12.723  24.609  92.343  0.00  0.00    -0.348 OA
ATOM     11  C   LIG d   1      13.087  23.403  92.903  0.00  0.00     0.174 C 
ENDBRANCH   7  10
BRANCH   3  12
ATOM     12  N   LIG d   1      16.480  25.176  91.218  0.00  0.00    -0.304 N 
ATOM     13  C   LIG d   1      17.635  24.988  91.907  0.00  0.00     0.062 C 
ATOM     14  C   LIG d   1      18.101  25.352  93.159  0.00  0.00     0.017 C 
ATOM     15  C   LIG d   1      18.350  23.980  91.270  0.00  0.00     0.018 C 
ATOM     16  C   LIG d   1      19.005  24.565  93.826  0.00  0.00     0.002 C 
ATOM     17  C   LIG d   1      19.560  23.428  93.255  0.00  0.00     0.000 C 
ATOM     18  C   LIG d   1      19.330  23.266  91.898  0.00  0.00     0.002 C 
ATOM     19  C   LIG d   1      17.760  23.820  90.021  0.00  0.00     0.023 C 
ATOM     20  C   LIG d   1      18.355  23.496  88.804  0.00  0.00     0.057 C 
ATOM     21  C   LIG d   1      16.723  24.746  90.025  0.00  0.00     0.078 C 
ATOM     22  C   LIG d   1      17.710  23.727  87.593  0.00  0.00     0.008 C 
ATOM     23  C   LIG d   1      19.605  22.862  88.444  0.00  0.00     0.275 C 
ATOM     24  C   LIG d   1      16.504  24.397  87.636  0.00  0.00     0.017 C 
ATOM     25  C   LIG d   1      18.616  23.413  86.463  0.00  0.00     0.155 C 
ATOM     26  C   LIG d   1      15.632  24.860  86.659  0.00  0.00     0.017 C 
ATOM     27  C   LIG d   1      16.149  25.032  88.794  0.00  0.00     0.077 C 
ATOM     28  C   LIG d   1      15.638  24.751  85.291  0.00  0.00     0.002 C 
ATOM     29  C   LIG d   1      14.923  25.900  87.242  0.00  0.00     0.062 C 
ATOM     30  C   LIG d   1      14.885  25.648  84.549  0.00  0.00     0.000 C 
ATOM     31  C   LIG d   1      14.377  26.798  85.132  0.00  0.00     0.002 C 
ATOM     32  C   LIG d   1      14.129  26.759  86.500  0.00  0.00     0.017 C 
ATOM     33  N   LIG d   1      15.323  26.069  88.527  0.00  0.00    -0.306 NA
ATOM     34  N   LIG d   1      19.909  23.283  87.107  0.00  0.00    -0.229 NA
ATOM     35  O   LIG d   1      20.459  22.361  89.201  0.00  0.00    -0.266 OA
ENDBRANCH   3  12
TORSDOF 4
ENDMDL
MODEL 4
REMARK NAME *****_MODEL4
REMARK  4 active torsions:
REMARK  status: ('A' for Active; 'I' for Inactive)
REMARK    1  A    between atoms: C_3  and  N_2 
REMARK    2  A    between atoms: N_29  and  C_5 
REMARK    3  A    between atoms: C_7  and  N_12 
REMARK    4  A    between atoms: C_9  and  O_10 
ROOT
ATOM      1  C   LIG d   1      21.520  11.430  86.252  0.00  0.00     0.139 C 
ATOM      2  C   LIG d   1      19.936  11.544  85.906  0.00  0.00     0.081 C 
ATOM      3  C   LIG d   1      19.928  10.064  85.162  0.00  0.00     0.209 C 
ATOM      4  O   LIG d   1      20.260   9.317  86.425  0.00  0.00    -0.319 OA
ATOM      5  C   LIG d   1      20.296   9.814  87.555  0.00  0.00     0.192 C 
ATOM      6  C   LIG d   1      21.082   8.762  88.370  0.00  0.00     0.057 C 
ATOM      7  C   LIG d   1      21.257  11.070  87.911  0.00  0.00     0.183 C 
ENDROOT
BRANCH   1   8
ATOM      8  N   LIG d   1      21.686  12.951  86.539  0.00  0.00    -0.267 NA
ATOM      9  C   LIG d   1      22.605  13.218  86.295  0.00  0.00     0.113 C 
ENDBRANCH   1   8
BRANCH   7  10
ATOM     10  O   LIG d   1      20.120  12.048  88.133  0.00  0.00    -0.348 OA
ATOM     11  C   LIG d   1      20.425  12.767  89.269  0.00  0.00     0.174 C 
ENDBRANCH   7  10
BRANCH   3  12
ATOM     12  N   LIG d   1      18.362   9.891  85.312  0.00  0.00    -0.304 N 
ATOM     13  C   LIG d   1      17.704  10.480  84.281  0.00  0.00     0.062 C 
ATOM     14  C   LIG d   1      18.020  10.804  82.972  0.00  0.00     0.017 C 
ATOM     15  C   LIG d   1      16.347  10.483  84.589  0.00  0.00     0.018 C 
ATOM     16  C   LIG d   1      17.050  10.825  82.002  0.00  0.00     0.002 C 
ATOM     17  C   LIG d   1      15.710  10.613  82.290  0.00  0.00     0.000 C 
ATOM     18  C   LIG d   1      15.378  10.614  83.637  0.00  0.00     0.002 C 
ATOM     19  C   LIG d   1      16.262  10.198  85.947  0.00  0.00     0.023 C 
ATOM     20  C   LIG d   1      15.350  10.673  86.888  0.00  0.00     0.057 C 
ATOM     21  C   LIG d   1      17.586  10.033  86.335  0.00  0.00     0.078 C 
ATOM     22  C   LIG d   1      15.603  10.594  88.254  0.00  0.00     0.008 C 
ATOM     23  C   LIG d   1      14.028  11.255  86.789  0.00  0.00     0.275 C 
ATOM     24  C   LIG d   1      16.844  10.132  88.641  0.00  0.00     0.017 C 
ATOM     25  C   LIG d   1      14.535  11.285  89.012  0.00  0.00     0.155 C 
ATOM     26  C   LIG d   1      17.470   9.987  89.873  0.00  0.00     0.017 C 
ATOM     27  C   LIG d   1      17.834  10.047  87.701  0.00  0.00     0.077 C 
ATOM     28  C   LIG d   1      17.035  10.199  91.157  0.00  0.00     0.002 C 
ATOM     29  C   LIG d   1      18.832  10.020  89.616  0.00  0.00     0.062 C 
ATOM     30  C   LIG d   1      17.978  10.375  92.159  0.00  0.00     0.000 C 
ATOM     31  C   LIG d   1      19.305  10.627  91.845  0.00  0.00     0.002 C 
ATOM     32  C   LIG d   1      19.771  10.143  90.627  0.00  0.00     0.017 C 
ATOM     33  N   LIG d   1      19.048  10.164  88.285  0.00  0.00    -0.306 N 
ATOM     34  N   LIG d   1      13.826  12.021  87.983  0.00  0.00    -0.229 NA
ATOM     35  O   LIG d   1      13.329  11.405  85.768  0.00  0.00    -0.266 OA
ENDBRANCH   3  12
TORSDOF 4
ENDMDL
MODEL 5
REMARK NAME *****_MODEL5
REMARK  4 active torsions:
REMARK  status: ('A' for Active; 'I' for Inactive)
REMARK    1  A    between atoms: C_3  and  N_2 
REMARK    2  A    between atoms: N_29  and  C_5 
REMARK    3  A    between atoms: C_7  and  N_12 
REMARK    4  A    between atoms: C_9  and  O_10 
ROOT
ATOM      1  C   LIG d   1      11.572  28.619  82.297  0.00  0.00     0.139 C 
ATOM      2  C   LIG d   1      13.174  28.342  82.244  0.00  0.00     0.081 C 
ATOM      3  C   LIG d   1      13.064  27.624  80.756  0.00  0.00     0.209 C 
ATOM      4  O   LIG d   1      12.604  28.882  80.073  0.00  0.00    -0.319 OA
ATOM      5  C   LIG d   1      12.570  30.001  80.594  0.00  0.00     0.192 C 
ATOM      6  C   LIG d   1      11.647  30.797  79.643  0.00  0.00     0.057 C 
ATOM      7  C   LIG d   1      11.726  30.294  81.947  0.00  0.00     0.183 C 
ENDROOT
BRANCH   1   8
ATOM      8  N   LIG d   1      11.549  28.873  83.833  0.00  0.00    -0.267 NA
ATOM      9  C   LIG d   1      10.836  28.318  84.231  0.00  0.00     0.113 C 
ENDBRANCH   1   8
BRANCH   7  10
ATOM     10  O   LIG d   1      12.946  30.550  82.811  0.00  0.00    -0.348 OA
ATOM     11  C   LIG d   1      13.597  31.639  82.271  0.00  0.00     0.174 C 
ENDBRANCH   7  10
BRANCH   3  12
ATOM     12  N   LIG d   1      14.597  27.847  80.431  0.00  0.00    -0.304 N 
ATOM     13  C   LIG d   1      14.824  27.804  79.093  0.00  0.00     0.062 C 
ATOM     14  C   LIG d   1      14.063  28.034  77.960  0.00  0.00     0.017 C 
ATOM     15  C   LIG d   1      16.202  27.784  78.897  0.00  0.00     0.018 C 
ATOM     16  C   LIG d   1      14.644  28.504  76.809  0.00  0.00     0.002 C 
ATOM     17  C   LIG d   1      16.014  28.686  76.692  0.00  0.00     0.000 C 
ATOM     18  C   LIG d   1      16.780  28.147  77.715  0.00  0.00     0.002 C 
ATOM     19  C   LIG d   1      16.761  27.479  80.132  0.00  0.00     0.023 C 
ATOM     20  C   LIG d   1      17.901  26.731  80.419  0.00  0.00     0.057 C 
ATOM     21  C   LIG d   1      15.661  27.354  80.972  0.00  0.00     0.078 C 
ATOM     22  C   LIG d   1      18.131  26.208  81.687  0.00  0.00     0.008 C 
ATOM     23  C   LIG d   1      19.067  26.357  79.646  0.00  0.00     0.275 C 
ATOM     24  C   LIG d   1      17.130  26.359  82.625  0.00  0.00     0.017 C 
ATOM     25  C   LIG d   1      19.341  25.354  81.677  0.00  0.00     0.155 C 
ATOM     26  C   LIG d   1      16.969  25.920  83.933  0.00  0.00     0.017 C 
ATOM     27  C   LIG d   1      15.889  26.748  82.200  0.00  0.00     0.077 C 
ATOM     28  C   LIG d   1      17.797  25.226  84.780  0.00  0.00     0.002 C 
ATOM     29  C   LIG d   1      15.601  25.884  84.159  0.00  0.00     0.062 C 
ATOM     30  C   LIG d   1      17.238  24.567  85.864  0.00  0.00     0.000 C 
ATOM     31  C   LIG d   1      15.869  24.360  85.938  0.00  0.00     0.002 C 
ATOM     32  C   LIG d   1      15.053  25.270  85.273  0.00  0.00     0.017 C 
ATOM     33  N   LIG d   1      14.939  26.295  83.049  0.00  0.00    -0.306 NA
ATOM     34  N   LIG d   1      19.607  25.180  80.262  0.00  0.00    -0.229 NA
ATOM     35  O   LIG d   1      19.368  26.708  78.489  0.00  0.00    -0.266 OA
ENDBRANCH   3  12
TORSDOF 4
ENDMDL
MODEL 6
REMARK NAME *****_MODEL6
REMARK  4 active torsions:
REMARK  status: ('A' for Active; 'I' for Inactive)
REMARK    1  A    between atoms: C_3  and  N_2 
REMARK    2  A    between atoms: N_29  and  C_5 
REMARK    3  A    between atoms: C_7  and  N_12 
REMARK    4  A    between atoms: C_9  and  O_10 
ROOT
ATOM      1  C   LIG d   1      23.068   6.126  70.747  0.00  0.00     0.139 C 
ATOM      2  C   LIG d   1      24.481   6.912  70.578  0.00  0.00     0.081 C 
ATOM      3  C   LIG d   1      24.005   7.589  69.143  0.00  0.00     0.209 C 
ATOM      4  O   LIG d   1      22.896   8.386  69.774  0.00  0.00    -0.319 OA
ATOM      5  C   LIG d   1      22.703   8.496  70.989  0.00  0.00     0.192 C 
ATOM      6  C   LIG d   1      21.253   9.025  71.062  0.00  0.00     0.057 C 
ATOM      7  C   LIG d   1      22.470   7.206  71.943  0.00  0.00     0.183 C 
ENDROOT
BRANCH   1   8
ATOM      8  N   LIG d   1      23.613   5.136  71.818  0.00  0.00    -0.267 NA
ATOM      9  C   LIG d   1      23.342   4.221  71.564  0.00  0.00     0.113 C 
ENDBRANCH   1   8
BRANCH   7  10
ATOM     10  O   LIG d   1      23.770   7.371  72.706  0.00  0.00    -0.348 OA
ATOM     11  C   LIG d   1      23.578   8.398  73.606  0.00  0.00     0.174 C 
ENDBRANCH   7  10
BRANCH   3  12
ATOM     12  N   LIG d   1      25.073   8.754  69.230  0.00  0.00    -0.304 N 
ATOM     13  C   LIG d   1      24.724   9.798  68.436  0.00  0.00     0.062 C 
ATOM     14  C   LIG d   1      23.534  10.286  67.923  0.00  0.00     0.017 C 
ATOM     15  C   LIG d   1      25.802  10.676  68.391  0.00  0.00     0.018 C 
ATOM     16  C   LIG d   1      23.374  11.626  67.676  0.00  0.00     0.002 C 
ATOM     17  C   LIG d   1      24.408  12.537  67.841  0.00  0.00     0.000 C 
ATOM     18  C   LIG d   1      25.665  11.988  68.038  0.00  0.00     0.002 C 
ATOM     19  C   LIG d   1      26.892   9.972  68.889  0.00  0.00     0.023 C 
ATOM     20  C   LIG d   1      28.232  10.048  68.515  0.00  0.00     0.057 C 
ATOM     21  C   LIG d   1      26.364   8.726  69.206  0.00  0.00     0.078 C 
ATOM     22  C   LIG d   1      29.138   9.042  68.835  0.00  0.00     0.008 C 
ATOM     23  C   LIG d   1      29.020  11.054  67.835  0.00  0.00     0.275 C 
ATOM     24  C   LIG d   1      28.634   7.907  69.439  0.00  0.00     0.017 C 
ATOM     25  C   LIG d   1      30.450   9.316  68.207  0.00  0.00     0.155 C 
ATOM     26  C   LIG d   1      29.200   6.699  69.827  0.00  0.00     0.017 C 
ATOM     27  C   LIG d   1      27.281   7.709  69.435  0.00  0.00     0.077 C 
ATOM     28  C   LIG d   1      30.491   6.236  69.801  0.00  0.00     0.002 C 
ATOM     29  C   LIG d   1      28.161   5.780  69.845  0.00  0.00     0.062 C 
ATOM     30  C   LIG d   1      30.709   4.868  69.857  0.00  0.00     0.000 C 
ATOM     31  C   LIG d   1      29.667   3.976  69.648  0.00  0.00     0.002 C 
ATOM     32  C   LIG d   1      28.385   4.417  69.955  0.00  0.00     0.017 C 
ATOM     33  N   LIG d   1      27.000   6.388  69.499  0.00  0.00    -0.306 NA
ATOM     34  N   LIG d   1      30.147  10.376  67.264  0.00  0.00    -0.229 NA
ATOM     35  O   LIG d   1      28.666  12.192  67.471  0.00  0.00    -0.266 OA
ENDBRANCH   3  12
TORSDOF 4
ENDMDL
MODEL 7
REMARK NAME *****_MODEL7
REMARK  4 active torsions:
REMARK  status: ('A' for Active; 'I' for Inactive)
REMARK    1  A    between atoms: C_3  and  N_2 
REMARK    2  A    between atoms: N_29  and  C_5 
REMARK    3  A    between atoms: C_7  and  N_12 
REMARK    4  A    between atoms: C_9  and  O_10 
ROOT
ATOM      1  C   LIG d   1      64.588  36.391  57.469  0.00  0.00     0.139 C 
ATOM      2  C   LIG d   1      65.101  35.660  58.827  0.00  0.00     0.081 C 
ATOM      3  C   LIG d   1      64.079  34.377  58.598  0.00  0.00     0.209 C 
ATOM      4  O   LIG d   1      64.758  33.935  57.331  0.00  0.00    -0.319 OA
ATOM      5  C   LIG d   1      65.816  34.399  56.893  0.00  0.00     0.192 C 
ATOM      6  C   LIG d   1      65.820  33.923  55.423  0.00  0.00     0.057 C 
ATOM      7  C   LIG d   1      65.993  35.978  56.570  0.00  0.00     0.183 C 
ENDROOT
BRANCH   1   8
ATOM      8  N   LIG d   1      65.167  37.782  57.860  0.00  0.00    -0.267 NA
ATOM      9  C   LIG d   1      64.560  38.482  57.518  0.00  0.00     0.113 C 
ENDBRANCH   1   8
BRANCH   7  10
ATOM     10  O   LIG d   1      66.999  36.227  57.676  0.00  0.00    -0.348 OA
ATOM     11  C   LIG d   1      68.150  35.552  57.331  0.00  0.00     0.174 C 
ENDBRANCH   7  10
BRANCH   3  12
ATOM     12  N   LIG d   1      64.915  33.420  59.540  0.00  0.00    -0.304 N 
ATOM     13  C   LIG d   1      64.692  32.116  59.235  0.00  0.00     0.062 C 
ATOM     14  C   LIG d   1      64.286  31.428  58.104  0.00  0.00     0.017 C 
ATOM     15  C   LIG d   1      65.277  31.341  60.232  0.00  0.00     0.018 C 
ATOM     16  C   LIG d   1      64.708  30.142  57.877  0.00  0.00     0.002 C 
ATOM     17  C   LIG d   1      65.480  29.443  58.794  0.00  0.00     0.000 C 
ATOM     18  C   LIG d   1      65.599  30.028  60.046  0.00  0.00     0.002 C 
ATOM     19  C   LIG d   1      65.546  32.208  61.284  0.00  0.00     0.023 C 
ATOM     20  C   LIG d   1      65.501  31.965  62.655  0.00  0.00     0.057 C 
ATOM     21  C   LIG d   1      65.108  33.442  60.817  0.00  0.00     0.078 C 
ATOM     22  C   LIG d   1      65.437  33.004  63.579  0.00  0.00     0.008 C 
ATOM     23  C   LIG d   1      65.557  30.760  63.456  0.00  0.00     0.275 C 
ATOM     24  C   LIG d   1      65.303  34.285  63.082  0.00  0.00     0.017 C 
ATOM     25  C   LIG d   1      65.269  32.462  64.947  0.00  0.00     0.155 C 
ATOM     26  C   LIG d   1      65.138  35.529  63.676  0.00  0.00     0.017 C 
ATOM     27  C   LIG d   1      64.964  34.444  61.767  0.00  0.00     0.077 C 
ATOM     28  C   LIG d   1      65.115  35.927  64.990  0.00  0.00     0.002 C 
ATOM     29  C   LIG d   1      64.517  36.326  62.726  0.00  0.00     0.062 C 
ATOM     30  C   LIG d   1      64.526  37.141  65.306  0.00  0.00     0.000 C 
ATOM     31  C   LIG d   1      63.725  37.801  64.387  0.00  0.00     0.002 C 
ATOM     32  C   LIG d   1      63.978  37.564  63.040  0.00  0.00     0.017 C 
ATOM     33  N   LIG d   1      64.317  35.618  61.588  0.00  0.00    -0.306 NA
ATOM     34  N   LIG d   1      64.935  31.071  64.710  0.00  0.00    -0.229 NA
ATOM     35  O   LIG d   1      65.746  29.590  63.071  0.00  0.00    -0.266 OA
ENDBRANCH   3  12
TORSDOF 4
ENDMDL
MODEL 8
REMARK NAME *****_MODEL8
REMARK  4 active torsions:
REMARK  status: ('A' for Active; 'I' for Inactive)
REMARK    1  A    between atoms: C_3  and  N_2 
REMARK    2  A    between atoms: N_29  and  C_5 
REMARK    3  A    between atoms: C_7  and  N_12 
REMARK    4  A    between atoms: C_9  and  O_10 
ROOT
ATOM      1  C   LIG d   1      20.807  12.086  88.176  0.00  0.00     0.139 C 
ATOM      2  C   LIG d   1      19.958  10.755  87.790  0.00  0.00     0.081 C 
ATOM      3  C   LIG d   1      21.196   9.754  88.248  0.00  0.00     0.209 C 
ATOM      4  O   LIG d   1      21.127  10.167  89.693  0.00  0.00    -0.319 OA
ATOM      5  C   LIG d   1      20.247  10.879  90.186  0.00  0.00     0.192 C 
ATOM      6  C   LIG d   1      20.875  11.327  91.526  0.00  0.00     0.057 C 
ATOM      7  C   LIG d   1      19.934  12.370  89.629  0.00  0.00     0.183 C 
ENDROOT
BRANCH   1   8
ATOM      8  N   LIG d   1      19.893  13.047  87.361  0.00  0.00    -0.267 NA
ATOM      9  C   LIG d   1      20.467  13.624  86.801  0.00  0.00     0.113 C 
ENDBRANCH   1   8
BRANCH   7  10
ATOM     10  O   LIG d   1      18.561  12.024  89.089  0.00  0.00    -0.348 OA
ATOM     11  C   LIG d   1      17.857  11.446  90.124  0.00  0.00     0.174 C 
ENDBRANCH   7  10
BRANCH   3  12
ATOM     12  N   LIG d   1      20.246   8.501  88.421  0.00  0.00    -0.304 N 
ATOM     13  C   LIG d   1      20.821   7.556  89.209  0.00  0.00     0.062 C 
ATOM     14  C   LIG d   1      21.782   7.561  90.205  0.00  0.00     0.017 C 
ATOM     15  C   LIG d   1      20.038   6.408  89.135  0.00  0.00     0.018 C 
ATOM     16  C   LIG d   1      21.747   6.635  91.217  0.00  0.00     0.002 C 
ATOM     17  C   LIG d   1      20.816   5.607  91.248  0.00  0.00     0.000 C 
ATOM     18  C   LIG d   1      20.080   5.430  90.086  0.00  0.00     0.002 C 
ATOM     19  C   LIG d   1      19.197   6.586  88.043  0.00  0.00     0.023 C 
ATOM     20  C   LIG d   1      18.718   5.639  87.141  0.00  0.00     0.057 C 
ATOM     21  C   LIG d   1      19.543   7.843  87.560  0.00  0.00     0.078 C 
ATOM     22  C   LIG d   1      18.193   6.007  85.906  0.00  0.00     0.008 C 
ATOM     23  C   LIG d   1      18.569   4.200  87.192  0.00  0.00     0.275 C 
ATOM     24  C   LIG d   1      18.272   7.340  85.557  0.00  0.00     0.017 C 
ATOM     25  C   LIG d   1      17.882   4.802  85.102  0.00  0.00     0.155 C 
ATOM     26  C   LIG d   1      17.934   8.052  84.414  0.00  0.00     0.017 C 
ATOM     27  C   LIG d   1      19.086   8.161  86.288  0.00  0.00     0.077 C 
ATOM     28  C   LIG d   1      17.336   7.675  83.237  0.00  0.00     0.002 C 
ATOM     29  C   LIG d   1      18.726   9.191  84.425  0.00  0.00     0.062 C 
ATOM     30  C   LIG d   1      17.496   8.482  82.121  0.00  0.00     0.000 C 
ATOM     31  C   LIG d   1      18.462   9.476  82.099  0.00  0.00     0.002 C 
ATOM     32  C   LIG d   1      18.838  10.022  83.322  0.00  0.00     0.017 C 
ATOM     33  N   LIG d   1      19.510   9.198  85.530  0.00  0.00    -0.306 NA
ATOM     34  N   LIG d   1      18.545   3.740  85.835  0.00  0.00    -0.229 NA
ATOM     35  O   LIG d   1      18.784   3.439  88.156  0.00  0.00    -0.266 OA
ENDBRANCH   3  12
TORSDOF 4
ENDMDL
MODEL 9
REMARK NAME *****_MODEL9
REMARK  4 active torsions:
REMARK  status: ('A' for Active; 'I' for Inactive)
REMARK    1  A    between atoms: C_3  and  N_2 
REMARK    2  A    between atoms: N_29  and  C_5 
REMARK    3  A    between atoms: C_7  and  N_12 
REMARK    4  A    between atoms: C_9  and  O_10 
ROOT
ATOM      1  C   LIG d   1      17.552   4.146  86.528  0.00  0.00     0.139 C 
ATOM      2  C   LIG d   1      18.404   5.433  86.019  0.00  0.00     0.081 C 
ATOM      3  C   LIG d   1      18.121   6.258  87.428  0.00  0.00     0.209 C 
ATOM      4  O   LIG d   1      18.883   5.273  88.272  0.00  0.00    -0.319 OA
ATOM      5  C   LIG d   1      19.567   4.343  87.835  0.00  0.00     0.192 C 
ATOM      6  C   LIG d   1      19.747   3.435  89.073  0.00  0.00     0.057 C 
ATOM      7  C   LIG d   1      18.948   3.202  86.865  0.00  0.00     0.183 C 
ENDROOT
BRANCH   1   8
ATOM      8  N   LIG d   1      17.401   3.536  85.104  0.00  0.00    -0.267 NA
ATOM      9  C   LIG d   1      16.448   3.324  84.954  0.00  0.00     0.113 C 
ENDBRANCH   1   8
BRANCH   7  10
ATOM     10  O   LIG d   1      19.748   3.616  85.646  0.00  0.00    -0.348 OA
ATOM     11  C   LIG d   1      20.276   2.464  85.103  0.00  0.00     0.174 C 
ENDBRANCH   7  10
BRANCH   3  12
ATOM     12  N   LIG d   1      19.350   7.232  87.215  0.00  0.00    -0.304 N 
ATOM     13  C   LIG d   1      19.791   7.728  88.400  0.00  0.00     0.062 C 
ATOM     14  C   LIG d   1      19.743   7.309  89.719  0.00  0.00     0.017 C 
ATOM     15  C   LIG d   1      20.713   8.732  88.123  0.00  0.00     0.018 C 
ATOM     16  C   LIG d   1      20.738   7.650  90.600  0.00  0.00     0.002 C 
ATOM     17  C   LIG d   1      21.782   8.493  90.246  0.00  0.00     0.000 C 
ATOM     18  C   LIG d   1      21.636   9.154  89.036  0.00  0.00     0.002 C 
ATOM     19  C   LIG d   1      20.551   9.041  86.777  0.00  0.00     0.023 C 
ATOM     20  C   LIG d   1      20.674  10.273  86.138  0.00  0.00     0.057 C 
ATOM     21  C   LIG d   1      19.546   8.177  86.357  0.00  0.00     0.078 C 
ATOM     22  C   LIG d   1      20.134  10.498  84.875  0.00  0.00     0.008 C 
ATOM     23  C   LIG d   1      21.343  11.511  86.481  0.00  0.00     0.275 C 
ATOM     24  C   LIG d   1      19.370   9.488  84.326  0.00  0.00     0.017 C 
ATOM     25  C   LIG d   1      20.298  11.920  84.495  0.00  0.00     0.155 C 
ATOM     26  C   LIG d   1      18.630   9.378  83.156  0.00  0.00     0.017 C 
ATOM     27  C   LIG d   1      18.955   8.467  85.135  0.00  0.00     0.077 C 
ATOM     28  C   LIG d   1      18.454  10.228  82.093  0.00  0.00     0.002 C 
ATOM     29  C   LIG d   1      17.667   8.410  83.403  0.00  0.00     0.062 C 
ATOM     30  C   LIG d   1      17.352  10.047  81.271  0.00  0.00     0.000 C 
ATOM     31  C   LIG d   1      16.302   9.232  81.665  0.00  0.00     0.002 C 
ATOM     32  C   LIG d   1      16.597   8.199  82.548  0.00  0.00     0.017 C 
ATOM     33  N   LIG d   1      17.808   7.929  84.663  0.00  0.00    -0.306 NA
ATOM     34  N   LIG d   1      20.688  12.550  85.741  0.00  0.00    -0.229 NA
ATOM     35  O   LIG d   1      22.073  11.743  87.463  0.00  0.00    -0.266 OA
ENDBRANCH   3  12
TORSDOF 4
ENDMDL
MODEL 10
REMARK NAME *****_MODEL10
REMARK  4 active torsions:
REMARK  status: ('A' for Active; 'I' for Inactive)
REMARK    1  A    between atoms: C_3  and  N_2 
REMARK    2  A    between atoms: N_29  and  C_5 
REMARK    3  A    between atoms: C_7  and  N_12 
REMARK    4  A    between atoms: C_9  and  O_10 
ROOT
ATOM      1  C   LIG d   1      13.036  10.249  87.948  0.00  0.00     0.139 C 
ATOM      2  C   LIG d   1      14.563   9.987  87.455  0.00  0.00     0.081 C 
ATOM      3  C   LIG d   1      15.113  11.344  88.231  0.00  0.00     0.209 C 
ATOM      4  O   LIG d   1      14.779  10.816  89.599  0.00  0.00    -0.319 OA
ATOM      5  C   LIG d   1      14.405   9.665  89.845  0.00  0.00     0.192 C 
ATOM      6  C   LIG d   1      13.806   9.792  91.264  0.00  0.00     0.057 C 
ATOM      7  C   LIG d   1      13.086   9.024  89.153  0.00  0.00     0.183 C 
ENDROOT
BRANCH   1   8
ATOM      8  N   LIG d   1      12.409   9.285  86.899  0.00  0.00    -0.267 NA
ATOM      9  C   LIG d   1      11.661   9.752  86.453  0.00  0.00     0.113 C 
ENDBRANCH   1   8
BRANCH   7  10
ATOM     10  O   LIG d   1      13.850   7.998  88.339  0.00  0.00    -0.348 OA
ATOM     11  C   LIG d   1      14.422   7.121  89.235  0.00  0.00     0.174 C 
ENDBRANCH   7  10
BRANCH   3  12
ATOM     12  N   LIG d   1      16.613  10.837  88.254  0.00  0.00    -0.304 N 
ATOM     13  C   LIG d   1      17.310  11.420  89.263  0.00  0.00     0.062 C 
ATOM     14  C   LIG d   1      16.983  11.984  90.484  0.00  0.00     0.017 C 
ATOM     15  C   LIG d   1      18.653  11.103  89.089  0.00  0.00     0.018 C 
ATOM     16  C   LIG d   1      17.866  11.945  91.534  0.00  0.00     0.002 C 
ATOM     17  C   LIG d   1      19.146  11.426  91.405  0.00  0.00     0.000 C 
ATOM     18  C   LIG d   1      19.560  11.169  90.107  0.00  0.00     0.002 C 
ATOM     19  C   LIG d   1      18.768  10.617  87.792  0.00  0.00     0.023 C 
ATOM     20  C   LIG d   1      19.822  10.757  86.891  0.00  0.00     0.057 C 
ATOM     21  C   LIG d   1      17.468  10.671  87.302  0.00  0.00     0.078 C 
ATOM     22  C   LIG d   1      19.652  10.538  85.528  0.00  0.00     0.008 C 
ATOM     23  C   LIG d   1      21.228  11.067  87.044  0.00  0.00     0.275 C 
ATOM     24  C   LIG d   1      18.369  10.287  85.083  0.00  0.00     0.017 C 
ATOM     25  C   LIG d   1      20.892  10.882  84.796  0.00  0.00     0.155 C 
ATOM     26  C   LIG d   1      17.812  10.099  83.825  0.00  0.00     0.017 C 
ATOM     27  C   LIG d   1      17.322  10.540  85.927  0.00  0.00     0.077 C 
ATOM     28  C   LIG d   1      18.369  10.033  82.572  0.00  0.00     0.002 C 
ATOM     29  C   LIG d   1      16.474  10.445  83.943  0.00  0.00     0.062 C 
ATOM     30  C   LIG d   1      17.556  10.254  81.471  0.00  0.00     0.000 C 
ATOM     31  C   LIG d   1      16.296  10.812  81.621  0.00  0.00     0.002 C 
ATOM     32  C   LIG d   1      15.655  10.611  82.839  0.00  0.00     0.017 C 
ATOM     33  N   LIG d   1      16.204  10.817  85.219  0.00  0.00    -0.306 NA
ATOM     34  N   LIG d   1      21.670  11.598  85.788  0.00  0.00    -0.229 NA
ATOM     35  O   LIG d   1      21.872  11.215  88.101  0.00  0.00    -0.266 OA
ENDBRANCH   3  12
TORSDOF 4
ENDMDL
