MODEL 1
REMARK NAME *****_MODEL1
REMARK  3 active torsions:
REMARK  status: ('A' for Active; 'I' for Inactive)
REMARK    1  A    between atoms: C_4  and  N_8 
REMARK       I    between atoms: N_8  and  C_9 
REMARK       I    between atoms: C_9  and  N_11 
REMARK    2  A    between atoms: N_14  and  C_17 
REMARK    3  A    between atoms: C_19  and  C_22 
ROOT
ATOM      1  N   LIG d   1      17.973   7.164  34.176  0.00  0.00    -0.193 NA
ATOM      2  C   LIG d   1      18.415   8.264  33.489  0.00  0.00     0.346 C 
ATOM      3  O   LIG d   1      17.819   9.319  33.807  0.00  0.00    -0.245 OA
ATOM      4  N   LIG d   1      19.414   8.290  32.526  0.00  0.00    -0.297 N 
ATOM      5  C   LIG d   1      20.215   9.479  32.285  0.00  0.00     0.130 C 
ATOM      6  C   LIG d   1      20.357   9.827  30.776  0.00  0.00     0.128 C 
ATOM      7  N   LIG d   1      20.628   8.642  29.987  0.00  0.00    -0.324 N 
ATOM      8  C   LIG d   1      19.713   7.539  30.186  0.00  0.00     0.128 C 
ATOM      9  C   LIG d   1      19.687   7.141  31.683  0.00  0.00     0.130 C 
ENDROOT
BRANCH   7  10
ATOM     10  C   LIG d   1      21.676   8.547  29.093  0.00  0.00     0.191 A 
ATOM     11  N   LIG d   1      22.915   8.091  29.370  0.00  0.00    -0.202 NA
ATOM     12  C   LIG d   1      23.813   8.043  28.353  0.00  0.00     0.172 A 
ATOM     13  N   LIG d   1      23.336   8.460  27.158  0.00  0.00    -0.187 NA
ATOM     14  S   LIG d   1      21.718   8.932  27.384  0.00  0.00     0.052 SA
BRANCH  12  15
ATOM     15  C   LIG d   1      25.139   7.558  28.526  0.00  0.00     0.043 A 
ATOM     16  C   LIG d   1      25.455   6.170  28.577  0.00  0.00     0.038 A 
ATOM     17 BR   LIG d   1      24.173   4.812  28.584  0.00  0.00    -0.049 b 
ATOM     18  C   LIG d   1      26.799   5.750  28.667  0.00  0.00     0.007 A 
ATOM     19  C   LIG d   1      27.839   6.691  28.733  0.00  0.00     0.001 A 
ATOM     20  C   LIG d   1      27.540   8.062  28.732  0.00  0.00     0.000 A 
ATOM     21  C   LIG d   1      26.204   8.490  28.632  0.00  0.00     0.004 A 
ENDBRANCH  12  15
ENDBRANCH   7  10
BRANCH   1  22
ATOM     22  C   LIG d   1      18.658   6.009  34.429  0.00  0.00     0.086 A 
ATOM     23  C   LIG d   1      18.191   4.741  34.008  0.00  0.00     0.015 A 
ATOM     24  C   LIG d   1      18.922   3.563  34.279  0.00  0.00    -0.020 A 
ATOM     25  C   LIG d   1      18.421   2.238  33.848  0.00  0.00     0.031 C 
ATOM     26  C   LIG d   1      20.150   3.669  34.967  0.00  0.00    -0.004 A 
ATOM     27  C   LIG d   1      20.640   4.928  35.361  0.00  0.00     0.001 A 
ATOM     28  C   LIG d   1      19.902   6.093  35.086  0.00  0.00     0.019 A 
ENDBRANCH   1  22
TORSDOF 3
ENDMDL
MODEL 2
REMARK NAME *****_MODEL2
REMARK  3 active torsions:
REMARK  status: ('A' for Active; 'I' for Inactive)
REMARK    1  A    between atoms: C_4  and  N_8 
REMARK       I    between atoms: N_8  and  C_9 
REMARK       I    between atoms: C_9  and  N_11 
REMARK    2  A    between atoms: N_14  and  C_17 
REMARK    3  A    between atoms: C_19  and  C_22 
ROOT
ATOM      1  N   LIG d   1      17.736   7.097  33.869  0.00  0.00    -0.193 NA
ATOM      2  C   LIG d   1      18.155   8.188  33.155  0.00  0.00     0.346 C 
ATOM      3  O   LIG d   1      17.480   9.219  33.383  0.00  0.00    -0.245 OA
ATOM      4  N   LIG d   1      19.209   8.231  32.252  0.00  0.00    -0.297 N 
ATOM      5  C   LIG d   1      19.953   9.454  32.000  0.00  0.00     0.130 C 
ATOM      6  C   LIG d   1      20.166   9.739  30.486  0.00  0.00     0.128 C 
ATOM      7  N   LIG d   1      20.555   8.537  29.775  0.00  0.00    -0.324 N 
ATOM      8  C   LIG d   1      19.694   7.390  29.975  0.00  0.00     0.128 C 
ATOM      9  C   LIG d   1      19.599   7.062  31.486  0.00  0.00     0.130 C 
ENDROOT
BRANCH   7  10
ATOM     10  C   LIG d   1      21.660   8.464  28.950  0.00  0.00     0.191 A 
ATOM     11  N   LIG d   1      22.870   7.973  29.288  0.00  0.00    -0.202 NA
ATOM     12  C   LIG d   1      23.834   7.956  28.333  0.00  0.00     0.172 A 
ATOM     13  N   LIG d   1      23.446   8.436  27.129  0.00  0.00    -0.187 NA
ATOM     14  S   LIG d   1      21.824   8.927  27.268  0.00  0.00     0.052 SA
BRANCH  12  15
ATOM     15  C   LIG d   1      25.138   7.440  28.571  0.00  0.00     0.043 A 
ATOM     16  C   LIG d   1      25.422   6.045  28.614  0.00  0.00     0.038 A 
ATOM     17 BR   LIG d   1      24.114   4.715  28.522  0.00  0.00    -0.049 b 
ATOM     18  C   LIG d   1      26.750   5.595  28.772  0.00  0.00     0.007 A 
ATOM     19  C   LIG d   1      27.803   6.512  28.916  0.00  0.00     0.001 A 
ATOM     20  C   LIG d   1      27.533   7.889  28.924  0.00  0.00     0.000 A 
ATOM     21  C   LIG d   1      26.214   8.347  28.756  0.00  0.00     0.004 A 
ENDBRANCH  12  15
ENDBRANCH   7  10
BRANCH   1  22
ATOM     22  C   LIG d   1      18.470   5.999  34.220  0.00  0.00     0.086 A 
ATOM     23  C   LIG d   1      18.096   4.685  33.850  0.00  0.00     0.015 A 
ATOM     24  C   LIG d   1      18.876   3.568  34.222  0.00  0.00    -0.020 A 
ATOM     25  C   LIG d   1      18.472   2.194  33.843  0.00  0.00     0.031 C 
ATOM     26  C   LIG d   1      20.060   3.782  34.961  0.00  0.00    -0.004 A 
ATOM     27  C   LIG d   1      20.458   5.087  35.306  0.00  0.00     0.001 A 
ATOM     28  C   LIG d   1      19.672   6.190  34.930  0.00  0.00     0.019 A 
ENDBRANCH   1  22
TORSDOF 3
ENDMDL
MODEL 3
REMARK NAME *****_MODEL3
REMARK  3 active torsions:
REMARK  status: ('A' for Active; 'I' for Inactive)
REMARK    1  A    between atoms: C_4  and  N_8 
REMARK       I    between atoms: N_8  and  C_9 
REMARK       I    between atoms: C_9  and  N_11 
REMARK    2  A    between atoms: N_14  and  C_17 
REMARK    3  A    between atoms: C_19  and  C_22 
ROOT
ATOM      1  N   LIG d   1      17.538   7.086  33.555  0.00  0.00    -0.193 NA
ATOM      2  C   LIG d   1      17.925   8.169  32.811  0.00  0.00     0.346 C 
ATOM      3  O   LIG d   1      17.172   9.160  32.948  0.00  0.00    -0.245 OA
ATOM      4  N   LIG d   1      19.025   8.241  31.967  0.00  0.00    -0.297 N 
ATOM      5  C   LIG d   1      19.700   9.499  31.694  0.00  0.00     0.130 C 
ATOM      6  C   LIG d   1      19.983   9.725  30.181  0.00  0.00     0.128 C 
ATOM      7  N   LIG d   1      20.491   8.521  29.555  0.00  0.00    -0.324 N 
ATOM      8  C   LIG d   1      19.698   7.328  29.767  0.00  0.00     0.128 C 
ATOM      9  C   LIG d   1      19.536   7.067  31.285  0.00  0.00     0.130 C 
ENDROOT
BRANCH   7  10
ATOM     10  C   LIG d   1      21.645   8.485  28.798  0.00  0.00     0.191 A 
ATOM     11  N   LIG d   1      22.826   7.954  29.178  0.00  0.00    -0.202 NA
ATOM     12  C   LIG d   1      23.848   7.985  28.285  0.00  0.00     0.172 A 
ATOM     13  N   LIG d   1      23.542   8.549  27.095  0.00  0.00    -0.187 NA
ATOM     14  S   LIG d   1      21.921   9.055  27.164  0.00  0.00     0.052 SA
BRANCH  12  15
ATOM     15  C   LIG d   1      25.128   7.434  28.569  0.00  0.00     0.043 A 
ATOM     16  C   LIG d   1      25.363   6.032  28.668  0.00  0.00     0.038 A 
ATOM     17 BR   LIG d   1      24.012   4.744  28.595  0.00  0.00    -0.049 b 
ATOM     18  C   LIG d   1      26.671   5.543  28.870  0.00  0.00     0.007 A 
ATOM     19  C   LIG d   1      27.753   6.428  29.003  0.00  0.00     0.001 A 
ATOM     20  C   LIG d   1      27.530   7.813  28.957  0.00  0.00     0.000 A 
ATOM     21  C   LIG d   1      26.231   8.309  28.745  0.00  0.00     0.004 A 
ENDBRANCH  12  15
ENDBRANCH   7  10
BRANCH   1  22
ATOM     22  C   LIG d   1      18.321   6.060  34.003  0.00  0.00     0.086 A 
ATOM     23  C   LIG d   1      18.045   4.705  33.698  0.00  0.00     0.015 A 
ATOM     24  C   LIG d   1      18.874   3.663  34.170  0.00  0.00    -0.020 A 
ATOM     25  C   LIG d   1      18.571   2.247  33.859  0.00  0.00     0.031 C 
ATOM     26  C   LIG d   1      20.008   3.995  34.942  0.00  0.00    -0.004 A 
ATOM     27  C   LIG d   1      20.311   5.340  35.223  0.00  0.00     0.001 A 
ATOM     28  C   LIG d   1      19.476   6.368  34.748  0.00  0.00     0.019 A 
ENDBRANCH   1  22
TORSDOF 3
ENDMDL
MODEL 4
REMARK NAME *****_MODEL4
REMARK  3 active torsions:
REMARK  status: ('A' for Active; 'I' for Inactive)
REMARK    1  A    between atoms: C_4  and  N_8 
REMARK       I    between atoms: N_8  and  C_9 
REMARK       I    between atoms: C_9  and  N_11 
REMARK    2  A    between atoms: N_14  and  C_17 
REMARK    3  A    between atoms: C_19  and  C_22 
ROOT
ATOM      1  N   LIG d   1      23.864   8.263  27.759  0.00  0.00    -0.193 NA
ATOM      2  C   LIG d   1      22.495   8.264  27.794  0.00  0.00     0.346 C 
ATOM      3  O   LIG d   1      21.971   8.561  26.695  0.00  0.00    -0.245 OA
ATOM      4  N   LIG d   1      21.696   7.977  28.892  0.00  0.00    -0.297 N 
ATOM      5  C   LIG d   1      20.358   7.429  28.744  0.00  0.00     0.130 C 
ATOM      6  C   LIG d   1      19.298   8.153  29.623  0.00  0.00     0.128 C 
ATOM      7  N   LIG d   1      19.801   8.391  30.961  0.00  0.00    -0.324 N 
ATOM      8  C   LIG d   1      21.085   9.055  31.035  0.00  0.00     0.128 C 
ATOM      9  C   LIG d   1      22.143   8.243  30.246  0.00  0.00     0.130 C 
ENDROOT
BRANCH   7  10
ATOM     10  C   LIG d   1      19.120   8.027  32.106  0.00  0.00     0.191 A 
ATOM     11  N   LIG d   1      17.795   7.787  32.197  0.00  0.00    -0.202 NA
ATOM     12  C   LIG d   1      17.303   7.412  33.405  0.00  0.00     0.172 A 
ATOM     13  N   LIG d   1      18.229   7.314  34.387  0.00  0.00    -0.187 NA
ATOM     14  S   LIG d   1      19.735   7.737  33.721  0.00  0.00     0.052 SA
BRANCH  12  15
ATOM     15  C   LIG d   1      15.929   7.111  33.611  0.00  0.00     0.043 A 
ATOM     16  C   LIG d   1      15.486   6.046  34.448  0.00  0.00     0.038 A 
ATOM     17 BR   LIG d   1      16.634   4.814  35.256  0.00  0.00    -0.049 b 
ATOM     18  C   LIG d   1      14.109   5.849  34.679  0.00  0.00     0.007 A 
ATOM     19  C   LIG d   1      13.155   6.678  34.067  0.00  0.00     0.001 A 
ATOM     20  C   LIG d   1      13.574   7.701  33.202  0.00  0.00     0.000 A 
ATOM     21  C   LIG d   1      14.945   7.912  32.975  0.00  0.00     0.004 A 
ENDBRANCH  12  15
ENDBRANCH   7  10
BRANCH   1  22
ATOM     22  C   LIG d   1      24.717   7.573  28.573  0.00  0.00     0.086 A 
ATOM     23  C   LIG d   1      25.128   8.066  29.835  0.00  0.00     0.015 A 
ATOM     24  C   LIG d   1      26.008   7.330  30.660  0.00  0.00    -0.020 A 
ATOM     25  C   LIG d   1      26.445   7.858  31.973  0.00  0.00     0.031 C 
ATOM     26  C   LIG d   1      26.463   6.071  30.213  0.00  0.00    -0.004 A 
ATOM     27  C   LIG d   1      26.035   5.557  28.975  0.00  0.00     0.001 A 
ATOM     28  C   LIG d   1      25.160   6.300  28.163  0.00  0.00     0.019 A 
ENDBRANCH   1  22
TORSDOF 3
ENDMDL
MODEL 5
REMARK NAME *****_MODEL5
REMARK  3 active torsions:
REMARK  status: ('A' for Active; 'I' for Inactive)
REMARK    1  A    between atoms: C_4  and  N_8 
REMARK       I    between atoms: N_8  and  C_9 
REMARK       I    between atoms: C_9  and  N_11 
REMARK    2  A    between atoms: N_14  and  C_17 
REMARK    3  A    between atoms: C_19  and  C_22 
ROOT
ATOM      1  N   LIG d   1      20.818   7.416  33.249  0.00  0.00    -0.193 NA
ATOM      2  C   LIG d   1      20.152   6.978  34.363  0.00  0.00     0.346 C 
ATOM      3  O   LIG d   1      20.915   6.608  35.285  0.00  0.00    -0.245 OA
ATOM      4  N   LIG d   1      18.775   6.920  34.532  0.00  0.00    -0.297 N 
ATOM      5  C   LIG d   1      18.159   7.024  35.845  0.00  0.00     0.130 C 
ATOM      6  C   LIG d   1      17.071   5.942  36.099  0.00  0.00     0.128 C 
ATOM      7  N   LIG d   1      16.210   5.782  34.944  0.00  0.00    -0.324 N 
ATOM      8  C   LIG d   1      16.890   5.556  33.687  0.00  0.00     0.128 C 
ATOM      9  C   LIG d   1      17.880   6.714  33.409  0.00  0.00     0.130 C 
ENDROOT
BRANCH   7  10
ATOM     10  C   LIG d   1      14.831   5.830  35.011  0.00  0.00     0.191 A 
ATOM     11  N   LIG d   1      14.035   6.680  34.331  0.00  0.00    -0.202 NA
ATOM     12  C   LIG d   1      12.693   6.562  34.502  0.00  0.00     0.172 A 
ATOM     13  N   LIG d   1      12.316   5.575  35.346  0.00  0.00    -0.187 NA
ATOM     14  S   LIG d   1      13.727   4.824  35.926  0.00  0.00     0.052 SA
BRANCH  12  15
ATOM     15  C   LIG d   1      11.759   7.388  33.818  0.00  0.00     0.043 A 
ATOM     16  C   LIG d   1      12.149   8.512  33.033  0.00  0.00     0.038 A 
ATOM     17 BR   LIG d   1      13.904   9.143  32.922  0.00  0.00    -0.049 b 
ATOM     18  C   LIG d   1      11.184   9.244  32.311  0.00  0.00     0.007 A 
ATOM     19  C   LIG d   1       9.825   8.894  32.376  0.00  0.00     0.001 A 
ATOM     20  C   LIG d   1       9.420   7.820  33.183  0.00  0.00     0.000 A 
ATOM     21  C   LIG d   1      10.377   7.077  33.898  0.00  0.00     0.004 A 
ENDBRANCH  12  15
ENDBRANCH   7  10
BRANCH   1  22
ATOM     22  C   LIG d   1      20.365   8.282  32.294  0.00  0.00     0.086 A 
ATOM     23  C   LIG d   1      20.262   7.920  30.929  0.00  0.00     0.015 A 
ATOM     24  C   LIG d   1      19.786   8.833  29.962  0.00  0.00    -0.020 A 
ATOM     25  C   LIG d   1      19.693   8.454  28.534  0.00  0.00     0.031 C 
ATOM     26  C   LIG d   1      19.391  10.122  30.382  0.00  0.00    -0.004 A 
ATOM     27  C   LIG d   1      19.459  10.481  31.742  0.00  0.00     0.001 A 
ATOM     28  C   LIG d   1      19.936   9.562  32.693  0.00  0.00     0.019 A 
ENDBRANCH   1  22
TORSDOF 3
ENDMDL
MODEL 6
REMARK NAME *****_MODEL6
REMARK  3 active torsions:
REMARK  status: ('A' for Active; 'I' for Inactive)
REMARK    1  A    between atoms: C_4  and  N_8 
REMARK       I    between atoms: N_8  and  C_9 
REMARK       I    between atoms: C_9  and  N_11 
REMARK    2  A    between atoms: N_14  and  C_17 
REMARK    3  A    between atoms: C_19  and  C_22 
ROOT
ATOM      1  N   LIG d   1      24.079   8.299  27.713  0.00  0.00    -0.193 NA
ATOM      2  C   LIG d   1      22.709   8.283  27.722  0.00  0.00     0.346 C 
ATOM      3  O   LIG d   1      22.203   8.555  26.609  0.00  0.00    -0.245 OA
ATOM      4  N   LIG d   1      21.893   8.005  28.810  0.00  0.00    -0.297 N 
ATOM      5  C   LIG d   1      20.565   7.438  28.646  0.00  0.00     0.130 C 
ATOM      6  C   LIG d   1      19.480   8.164  29.492  0.00  0.00     0.128 C 
ATOM      7  N   LIG d   1      19.954   8.431  30.836  0.00  0.00    -0.324 N 
ATOM      8  C   LIG d   1      21.229   9.112  30.922  0.00  0.00     0.128 C 
ATOM      9  C   LIG d   1      22.311   8.300  30.167  0.00  0.00     0.130 C 
ENDROOT
BRANCH   7  10
ATOM     10  C   LIG d   1      19.256   8.078  31.974  0.00  0.00     0.191 A 
ATOM     11  N   LIG d   1      17.928   7.857  32.051  0.00  0.00    -0.202 NA
ATOM     12  C   LIG d   1      17.418   7.490  33.254  0.00  0.00     0.172 A 
ATOM     13  N   LIG d   1      18.331   7.380  34.246  0.00  0.00    -0.187 NA
ATOM     14  S   LIG d   1      19.850   7.781  33.595  0.00  0.00     0.052 SA
BRANCH  12  15
ATOM     15  C   LIG d   1      16.037   7.209  33.446  0.00  0.00     0.043 A 
ATOM     16  C   LIG d   1      15.571   6.113  34.228  0.00  0.00     0.038 A 
ATOM     17 BR   LIG d   1      16.692   4.816  34.971  0.00  0.00    -0.049 b 
ATOM     18  C   LIG d   1      14.189   5.935  34.450  0.00  0.00     0.007 A 
ATOM     19  C   LIG d   1      13.254   6.815  33.883  0.00  0.00     0.001 A 
ATOM     20  C   LIG d   1      13.695   7.872  33.071  0.00  0.00     0.000 A 
ATOM     21  C   LIG d   1      15.071   8.064  32.853  0.00  0.00     0.004 A 
ENDBRANCH  12  15
ENDBRANCH   7  10
BRANCH   1  22
ATOM     22  C   LIG d   1      24.925   7.634  28.555  0.00  0.00     0.086 A 
ATOM     23  C   LIG d   1      25.231   8.107  29.854  0.00  0.00     0.015 A 
ATOM     24  C   LIG d   1      26.105   7.397  30.707  0.00  0.00    -0.020 A 
ATOM     25  C   LIG d   1      26.432   7.905  32.059  0.00  0.00     0.031 C 
ATOM     26  C   LIG d   1      26.663   6.183  30.249  0.00  0.00    -0.004 A 
ATOM     27  C   LIG d   1      26.340   5.687  28.972  0.00  0.00     0.001 A 
ATOM     28  C   LIG d   1      25.469   6.405  28.133  0.00  0.00     0.019 A 
ENDBRANCH   1  22
TORSDOF 3
ENDMDL
MODEL 7
REMARK NAME *****_MODEL7
REMARK  3 active torsions:
REMARK  status: ('A' for Active; 'I' for Inactive)
REMARK    1  A    between atoms: C_4  and  N_8 
REMARK       I    between atoms: N_8  and  C_9 
REMARK       I    between atoms: C_9  and  N_11 
REMARK    2  A    between atoms: N_14  and  C_17 
REMARK    3  A    between atoms: C_19  and  C_22 
ROOT
ATOM      1  N   LIG d   1      23.573   8.240  27.606  0.00  0.00    -0.193 NA
ATOM      2  C   LIG d   1      22.215   8.288  27.779  0.00  0.00     0.346 C 
ATOM      3  O   LIG d   1      21.590   8.561  26.729  0.00  0.00    -0.245 OA
ATOM      4  N   LIG d   1      21.525   8.069  28.964  0.00  0.00    -0.297 N 
ATOM      5  C   LIG d   1      20.163   7.561  28.975  0.00  0.00     0.130 C 
ATOM      6  C   LIG d   1      19.222   8.353  29.927  0.00  0.00     0.128 C 
ATOM      7  N   LIG d   1      19.866   8.624  31.196  0.00  0.00    -0.324 N 
ATOM      8  C   LIG d   1      21.170   9.248  31.112  0.00  0.00     0.128 C 
ATOM      9  C   LIG d   1      22.116   8.372  30.254  0.00  0.00     0.130 C 
ENDROOT
BRANCH   7  10
ATOM     10  C   LIG d   1      19.296   8.327  32.419  0.00  0.00     0.191 A 
ATOM     11  N   LIG d   1      18.129   7.677  32.611  0.00  0.00    -0.202 NA
ATOM     12  C   LIG d   1      17.738   7.448  33.891  0.00  0.00     0.172 A 
ATOM     13  N   LIG d   1      18.594   7.904  34.834  0.00  0.00    -0.187 NA
ATOM     14  S   LIG d   1      19.895   8.649  34.033  0.00  0.00     0.052 SA
BRANCH  12  15
ATOM     15  C   LIG d   1      16.540   6.752  34.211  0.00  0.00     0.043 A 
ATOM     16  C   LIG d   1      16.531   5.429  34.740  0.00  0.00     0.038 A 
ATOM     17 BR   LIG d   1      18.063   4.378  34.937  0.00  0.00    -0.049 b 
ATOM     18  C   LIG d   1      15.315   4.822  35.116  0.00  0.00     0.007 A 
ATOM     19  C   LIG d   1      14.096   5.500  34.950  0.00  0.00     0.001 A 
ATOM     20  C   LIG d   1      14.084   6.785  34.385  0.00  0.00     0.000 A 
ATOM     21  C   LIG d   1      15.293   7.402  34.018  0.00  0.00     0.004 A 
ENDBRANCH  12  15
ENDBRANCH   7  10
BRANCH   1  22
ATOM     22  C   LIG d   1      24.485   7.554  28.357  0.00  0.00     0.086 A 
ATOM     23  C   LIG d   1      24.960   8.034  29.601  0.00  0.00     0.015 A 
ATOM     24  C   LIG d   1      25.900   7.302  30.360  0.00  0.00    -0.020 A 
ATOM     25  C   LIG d   1      26.403   7.816  31.654  0.00  0.00     0.031 C 
ATOM     26  C   LIG d   1      26.351   6.058  29.865  0.00  0.00    -0.004 A 
ATOM     27  C   LIG d   1      25.860   5.556  28.646  0.00  0.00     0.001 A 
ATOM     28  C   LIG d   1      24.926   6.296  27.900  0.00  0.00     0.019 A 
ENDBRANCH   1  22
TORSDOF 3
ENDMDL
MODEL 8
REMARK NAME *****_MODEL8
REMARK  3 active torsions:
REMARK  status: ('A' for Active; 'I' for Inactive)
REMARK    1  A    between atoms: C_4  and  N_8 
REMARK       I    between atoms: N_8  and  C_9 
REMARK       I    between atoms: C_9  and  N_11 
REMARK    2  A    between atoms: N_14  and  C_17 
REMARK    3  A    between atoms: C_19  and  C_22 
ROOT
ATOM      1  N   LIG d   1      23.703   8.233  27.659  0.00  0.00    -0.193 NA
ATOM      2  C   LIG d   1      22.341   8.290  27.798  0.00  0.00     0.346 C 
ATOM      3  O   LIG d   1      21.744   8.548  26.727  0.00  0.00    -0.245 OA
ATOM      4  N   LIG d   1      21.621   8.095  28.969  0.00  0.00    -0.297 N 
ATOM      5  C   LIG d   1      20.257   7.593  28.954  0.00  0.00     0.130 C 
ATOM      6  C   LIG d   1      19.296   8.405  29.869  0.00  0.00     0.128 C 
ATOM      7  N   LIG d   1      19.910   8.694  31.149  0.00  0.00    -0.324 N 
ATOM      8  C   LIG d   1      21.218   9.310  31.087  0.00  0.00     0.128 C 
ATOM      9  C   LIG d   1      22.182   8.416  30.267  0.00  0.00     0.130 C 
ENDROOT
BRANCH   7  10
ATOM     10  C   LIG d   1      19.308   8.420  32.362  0.00  0.00     0.191 A 
ATOM     11  N   LIG d   1      18.162   7.731  32.539  0.00  0.00    -0.202 NA
ATOM     12  C   LIG d   1      17.734   7.534  33.812  0.00  0.00     0.172 A 
ATOM     13  N   LIG d   1      18.537   8.060  34.766  0.00  0.00    -0.187 NA
ATOM     14  S   LIG d   1      19.836   8.827  33.982  0.00  0.00     0.052 SA
BRANCH  12  15
ATOM     15  C   LIG d   1      16.553   6.803  34.118  0.00  0.00     0.043 A 
ATOM     16  C   LIG d   1      16.577   5.477  34.638  0.00  0.00     0.038 A 
ATOM     17 BR   LIG d   1      18.137   4.468  34.841  0.00  0.00    -0.049 b 
ATOM     18  C   LIG d   1      15.376   4.833  35.000  0.00  0.00     0.007 A 
ATOM     19  C   LIG d   1      14.140   5.477  34.827  0.00  0.00     0.001 A 
ATOM     20  C   LIG d   1      14.096   6.765  34.271  0.00  0.00     0.000 A 
ATOM     21  C   LIG d   1      15.290   7.419  33.918  0.00  0.00     0.004 A 
ENDBRANCH  12  15
ENDBRANCH   7  10
BRANCH   1  22
ATOM     22  C   LIG d   1      24.592   7.555  28.444  0.00  0.00     0.086 A 
ATOM     23  C   LIG d   1      25.045   8.058  29.687  0.00  0.00     0.015 A 
ATOM     24  C   LIG d   1      25.962   7.334  30.482  0.00  0.00    -0.020 A 
ATOM     25  C   LIG d   1      26.443   7.873  31.775  0.00  0.00     0.031 C 
ATOM     26  C   LIG d   1      26.412   6.077  30.023  0.00  0.00    -0.004 A 
ATOM     27  C   LIG d   1      25.943   5.553  28.804  0.00  0.00     0.001 A 
ATOM     28  C   LIG d   1      25.031   6.285  28.023  0.00  0.00     0.019 A 
ENDBRANCH   1  22
TORSDOF 3
ENDMDL
MODEL 9
REMARK NAME *****_MODEL9
REMARK  3 active torsions:
REMARK  status: ('A' for Active; 'I' for Inactive)
REMARK    1  A    between atoms: C_4  and  N_8 
REMARK       I    between atoms: N_8  and  C_9 
REMARK       I    between atoms: C_9  and  N_11 
REMARK    2  A    between atoms: N_14  and  C_17 
REMARK    3  A    between atoms: C_19  and  C_22 
ROOT
ATOM      1  N   LIG d   1      23.920   8.207  27.565  0.00  0.00    -0.193 NA
ATOM      2  C   LIG d   1      22.561   8.328  27.684  0.00  0.00     0.346 C 
ATOM      3  O   LIG d   1      21.987   8.562  26.595  0.00  0.00    -0.245 OA
ATOM      4  N   LIG d   1      21.820   8.216  28.852  0.00  0.00    -0.297 N 
ATOM      5  C   LIG d   1      20.436   7.772  28.842  0.00  0.00     0.130 C 
ATOM      6  C   LIG d   1      19.500   8.663  29.707  0.00  0.00     0.128 C 
ATOM      7  N   LIG d   1      20.111   8.984  30.982  0.00  0.00    -0.324 N 
ATOM      8  C   LIG d   1      21.446   9.541  30.909  0.00  0.00     0.128 C 
ATOM      9  C   LIG d   1      22.379   8.571  30.143  0.00  0.00     0.130 C 
ENDROOT
BRANCH   7  10
ATOM     10  C   LIG d   1      19.485   8.791  32.197  0.00  0.00     0.191 A 
ATOM     11  N   LIG d   1      18.732   7.725  32.538  0.00  0.00    -0.202 NA
ATOM     12  C   LIG d   1      18.216   7.693  33.794  0.00  0.00     0.172 A 
ATOM     13  N   LIG d   1      18.538   8.756  34.565  0.00  0.00    -0.187 NA
ATOM     14  S   LIG d   1      19.499   9.800  33.628  0.00  0.00     0.052 SA
BRANCH  12  15
ATOM     15  C   LIG d   1      17.428   6.608  34.269  0.00  0.00     0.043 A 
ATOM     16  C   LIG d   1      17.993   5.443  34.862  0.00  0.00     0.038 A 
ATOM     17 BR   LIG d   1      19.829   5.109  34.954  0.00  0.00    -0.049 b 
ATOM     18  C   LIG d   1      17.157   4.437  35.390  0.00  0.00     0.007 A 
ATOM     19  C   LIG d   1      15.760   4.557  35.316  0.00  0.00     0.001 A 
ATOM     20  C   LIG d   1      15.188   5.677  34.691  0.00  0.00     0.000 A 
ATOM     21  C   LIG d   1      16.014   6.689  34.172  0.00  0.00     0.004 A 
ENDBRANCH  12  15
ENDBRANCH   7  10
BRANCH   1  22
ATOM     22  C   LIG d   1      24.771   7.529  28.391  0.00  0.00     0.086 A 
ATOM     23  C   LIG d   1      25.157   8.026  29.659  0.00  0.00     0.015 A 
ATOM     24  C   LIG d   1      26.035   7.301  30.495  0.00  0.00    -0.020 A 
ATOM     25  C   LIG d   1      26.446   7.834  31.815  0.00  0.00     0.031 C 
ATOM     26  C   LIG d   1      26.514   6.049  30.054  0.00  0.00    -0.004 A 
ATOM     27  C   LIG d   1      26.110   5.530  28.809  0.00  0.00     0.001 A 
ATOM     28  C   LIG d   1      25.237   6.262  27.986  0.00  0.00     0.019 A 
ENDBRANCH   1  22
TORSDOF 3
ENDMDL
MODEL 10
REMARK NAME *****_MODEL10
REMARK  3 active torsions:
REMARK  status: ('A' for Active; 'I' for Inactive)
REMARK    1  A    between atoms: C_4  and  N_8 
REMARK       I    between atoms: N_8  and  C_9 
REMARK       I    between atoms: C_9  and  N_11 
REMARK    2  A    between atoms: N_14  and  C_17 
REMARK    3  A    between atoms: C_19  and  C_22 
ROOT
ATOM      1  N   LIG d   1      20.694   7.453  33.147  0.00  0.00    -0.193 NA
ATOM      2  C   LIG d   1      20.063   6.694  34.097  0.00  0.00     0.346 C 
ATOM      3  O   LIG d   1      20.840   5.936  34.723  0.00  0.00    -0.245 OA
ATOM      4  N   LIG d   1      18.708   6.705  34.397  0.00  0.00    -0.297 N 
ATOM      5  C   LIG d   1      18.213   6.366  35.722  0.00  0.00     0.130 C 
ATOM      6  C   LIG d   1      17.016   5.374  35.693  0.00  0.00     0.128 C 
ATOM      7  N   LIG d   1      16.055   5.740  34.672  0.00  0.00    -0.324 N 
ATOM      8  C   LIG d   1      16.601   5.939  33.346  0.00  0.00     0.128 C 
ATOM      9  C   LIG d   1      17.710   7.020  33.392  0.00  0.00     0.130 C 
ENDROOT
BRANCH   7  10
ATOM     10  C   LIG d   1      14.704   5.887  34.916  0.00  0.00     0.191 A 
ATOM     11  N   LIG d   1      13.859   6.688  34.233  0.00  0.00    -0.202 NA
ATOM     12  C   LIG d   1      12.551   6.683  34.599  0.00  0.00     0.172 A 
ATOM     13  N   LIG d   1      12.253   5.848  35.620  0.00  0.00    -0.187 NA
ATOM     14  S   LIG d   1      13.696   5.091  36.107  0.00  0.00     0.052 SA
BRANCH  12  15
ATOM     15  C   LIG d   1      11.569   7.468  33.935  0.00  0.00     0.043 A 
ATOM     16  C   LIG d   1      11.889   8.635  33.183  0.00  0.00     0.038 A 
ATOM     17 BR   LIG d   1      13.601   9.377  33.096  0.00  0.00    -0.049 b 
ATOM     18  C   LIG d   1      10.881   9.326  32.478  0.00  0.00     0.007 A 
ATOM     19  C   LIG d   1       9.547   8.890  32.528  0.00  0.00     0.001 A 
ATOM     20  C   LIG d   1       9.208   7.770  33.304  0.00  0.00     0.000 A 
ATOM     21  C   LIG d   1      10.208   7.069  34.001  0.00  0.00     0.004 A 
ENDBRANCH  12  15
ENDBRANCH   7  10
BRANCH   1  22
ATOM     22  C   LIG d   1      20.287   8.652  32.634  0.00  0.00     0.086 A 
ATOM     23  C   LIG d   1      20.025   8.838  31.255  0.00  0.00     0.015 A 
ATOM     24  C   LIG d   1      19.601  10.087  30.750  0.00  0.00    -0.020 A 
ATOM     25  C   LIG d   1      19.342  10.278  29.305  0.00  0.00     0.031 C 
ATOM     26  C   LIG d   1      19.419  11.157  31.653  0.00  0.00    -0.004 A 
ATOM     27  C   LIG d   1      19.644  10.974  33.030  0.00  0.00     0.001 A 
ATOM     28  C   LIG d   1      20.068   9.726  33.519  0.00  0.00     0.019 A 
ENDBRANCH   1  22
TORSDOF 3
ENDMDL
