@<TRIPOS>MOLECULE
*****_MODEL1
 27 30 0 0 0
SMALL
GASTEIGER

@<TRIPOS>ATOM
      1  N         26.4240  -10.6190   16.5350 N.am    1  LIG1       -0.1622
      2  C         25.9710   -9.2750   16.3260 C.2     1  LIG1        0.3275
      3  O         25.2460   -9.1030   15.3090 O.2     1  LIG1       -0.2504
      4  N         26.0010   -8.3530   17.4220 N.am    1  LIG1       -0.2597
      5  C         25.4390   -7.0320   17.1290 C.3     1  LIG1        0.1124
      6  C         23.9710   -7.3280   16.8330 C.3     1  LIG1        0.0957
      7  N         23.4160   -7.8280   18.0900 N.3     1  LIG1       -0.2470
      8  C         24.0570   -8.8800   18.8430 C.3     1  LIG1        0.0957
      9  C         25.5510   -8.9000   18.7000 C.3     1  LIG1        0.1124
     10  C         22.4160   -6.9830   18.6770 C.3     1  LIG1        0.1997
     11  N         22.3930   -6.4660   19.9310 N.3     1  LIG1       -0.1714
     12  C         21.6510   -5.3420   19.9770 C.3     1  LIG1        0.1818
     13  N         20.4170   -5.5630   19.4570 N.3     1  LIG1       -0.1386
     14  S         20.8070   -6.6300   18.1950 S.3     1  LIG1       -0.0143
     15  C         21.9330   -4.2390   20.9100 C.ar    1  LIG1        0.0109
     16  C         21.7890   -2.9110   20.5150 C.ar    1  LIG1       -0.0015
     17  C         22.1530   -1.8510   21.3010 C.ar    1  LIG1       -0.0002
     18  C         22.5630   -2.1420   22.5920 C.ar    1  LIG1       -0.0000
     19  C         22.3140   -3.4100   23.1040 C.ar    1  LIG1       -0.0002
     20  C         21.8240   -4.4210   22.2850 C.ar    1  LIG1       -0.0015
     21  C         26.8700  -11.3710   15.4010 C.ar    1  LIG1        0.0746
     22  C         28.1500  -11.8960   15.4890 C.ar    1  LIG1        0.0166
     23  C         28.7500  -12.5670   14.4330 C.ar    1  LIG1        0.0010
     24  C         28.2150  -12.3370   13.1780 C.ar    1  LIG1       -0.0042
     25  C         27.1440  -11.4700   13.0090 C.ar    1  LIG1       -0.0206
     26  C         26.7250  -11.1710   11.6190 C.3     1  LIG1        0.0311
     27  C         26.4340  -11.0650   14.1180 C.ar    1  LIG1        0.0124
@<TRIPOS>BOND
     1    26    25    1
     2    25    24   ar
     3    25    27   ar
     4    24    23   ar
     5    27    21   ar
     6    23    22   ar
     7     3     2    2
     8    21    22   ar
     9    21     1    1
    10     2     1   am
    11     2     4   am
    12     6     5    1
    13     6     7    1
    14     5     4    1
    15     4     9    1
    16     7    10    1
    17     7     8    1
    18    14    10    1
    19    14    13    1
    20    10    11    1
    21     9     8    1
    22    13    12    1
    23    11    12    1
    24    12    15    1
    25    16    15   ar
    26    16    17   ar
    27    15    20   ar
    28    17    18   ar
    29    20    19   ar
    30    18    19   ar
@<TRIPOS>MOLECULE
*****_MODEL2
 27 30 0 0 0
SMALL
GASTEIGER

@<TRIPOS>ATOM
      1  N         26.5410  -10.6470   16.4190 N.am    1  LIG1       -0.1622
      2  C         26.0780   -9.3050   16.2270 C.2     1  LIG1        0.3275
      3  O         25.3090   -9.1350   15.2420 O.2     1  LIG1       -0.2504
      4  N         26.1560   -8.3790   17.3180 N.am    1  LIG1       -0.2597
      5  C         25.5800   -7.0600   17.0470 C.3     1  LIG1        0.1124
      6  C         24.1010   -7.3580   16.8170 C.3     1  LIG1        0.0957
      7  N         23.6020   -7.8540   18.0980 N.3     1  LIG1       -0.2470
      8  C         24.2770   -8.9040   18.8250 C.3     1  LIG1        0.0957
      9  C         25.7630   -8.9240   18.6160 C.3     1  LIG1        0.1124
     10  C         22.6290   -7.0090   18.7260 C.3     1  LIG1        0.1997
     11  N         22.6650   -6.4820   19.9760 N.3     1  LIG1       -0.1714
     12  C         21.9210   -5.3600   20.0500 C.3     1  LIG1        0.1818
     13  N         20.6640   -5.5910   19.5920 N.3     1  LIG1       -0.1386
     14  S         20.9960   -6.6670   18.3210 S.3     1  LIG1       -0.0143
     15  C         22.2430   -4.2490   20.9590 C.ar    1  LIG1        0.0109
     16  C         23.3730   -4.2920   21.7720 C.ar    1  LIG1       -0.0015
     17  C         23.6510   -3.3450   22.7210 C.ar    1  LIG1       -0.0002
     18  C         22.8190   -2.2390   22.7630 C.ar    1  LIG1       -0.0000
     19  C         21.9580   -2.0080   21.6960 C.ar    1  LIG1       -0.0002
     20  C         21.8070   -2.9550   20.6900 C.ar    1  LIG1       -0.0015
     21  C         26.9380  -11.4020   15.2680 C.ar    1  LIG1        0.0746
     22  C         28.2100  -11.9500   15.3130 C.ar    1  LIG1        0.0166
     23  C         28.7640  -12.6280   14.2370 C.ar    1  LIG1        0.0010
     24  C         28.1930  -12.3820   13.0000 C.ar    1  LIG1       -0.0042
     25  C         27.1340  -11.4950   12.8680 C.ar    1  LIG1       -0.0206
     26  C         26.6760  -11.1820   11.4940 C.3     1  LIG1        0.0311
     27  C         26.4670  -11.0830   14.0010 C.ar    1  LIG1        0.0124
@<TRIPOS>BOND
     1    26    25    1
     2    25    24   ar
     3    25    27   ar
     4    24    23   ar
     5    27    21   ar
     6    23    22   ar
     7     3     2    2
     8    21    22   ar
     9    21     1    1
    10     2     1   am
    11     2     4   am
    12     6     5    1
    13     6     7    1
    14     5     4    1
    15     4     9    1
    16     7    10    1
    17     7     8    1
    18    14    10    1
    19    14    13    1
    20     9     8    1
    21    10    11    1
    22    13    12    1
    23    11    12    1
    24    12    15    1
    25    20    15   ar
    26    20    19   ar
    27    15    16   ar
    28    19    18   ar
    29    16    17   ar
    30    17    18   ar
@<TRIPOS>MOLECULE
*****_MODEL3
 27 30 0 0 0
SMALL
GASTEIGER

@<TRIPOS>ATOM
      1  N         26.3820  -10.5720   16.5580 N.am    1  LIG1       -0.1622
      2  C         25.8800   -9.2500   16.3250 C.2     1  LIG1        0.3275
      3  O         25.0950   -9.1360   15.3440 O.2     1  LIG1       -0.2504
      4  N         25.9440   -8.2850   17.3820 N.am    1  LIG1       -0.2597
      5  C         25.3290   -6.9920   17.0720 C.3     1  LIG1        0.1124
      6  C         23.8560   -7.3380   16.8710 C.3     1  LIG1        0.0957
      7  N         23.3860   -7.8030   18.1740 N.3     1  LIG1       -0.2470
      8  C         24.0980   -8.8080   18.9290 C.3     1  LIG1        0.0957
      9  C         25.5810   -8.7940   18.7030 C.3     1  LIG1        0.1124
     10  C         22.3960   -6.9620   18.7850 C.3     1  LIG1        0.1997
     11  N         22.3960   -6.4540   20.0420 N.3     1  LIG1       -0.1714
     12  C         21.6550   -5.3300   20.1090 C.3     1  LIG1        0.1818
     13  N         20.4110   -5.5490   19.6100 N.3     1  LIG1       -0.1386
     14  S         20.7790   -6.6080   18.3340 S.3     1  LIG1       -0.0143
     15  C         21.9520   -4.2340   21.0450 C.ar    1  LIG1        0.0109
     16  C         21.8750   -2.9040   20.6380 C.ar    1  LIG1       -0.0015
     17  C         22.2590   -1.8550   21.4290 C.ar    1  LIG1       -0.0002
     18  C         22.6160   -2.1530   22.7340 C.ar    1  LIG1       -0.0000
     19  C         22.2990   -3.4070   23.2450 C.ar    1  LIG1       -0.0002
     20  C         21.7930   -4.4020   22.4170 C.ar    1  LIG1       -0.0015
     21  C         26.7860  -11.3560   15.4290 C.ar    1  LIG1        0.0746
     22  C         28.0310  -11.9570   15.5250 C.ar    1  LIG1        0.0166
     23  C         28.5930  -12.6690   14.4750 C.ar    1  LIG1        0.0010
     24  C         28.0780  -12.4130   13.2170 C.ar    1  LIG1       -0.0042
     25  C         27.0630  -11.4830   13.0390 C.ar    1  LIG1       -0.0206
     26  C         26.6680  -11.1660   11.6460 C.3     1  LIG1        0.0311
     27  C         26.3740  -11.0300   14.1420 C.ar    1  LIG1        0.0124
@<TRIPOS>BOND
     1    26    25    1
     2    25    24   ar
     3    25    27   ar
     4    24    23   ar
     5    27    21   ar
     6    23    22   ar
     7     3     2    2
     8    21    22   ar
     9    21     1    1
    10     2     1   am
    11     2     4   am
    12     6     5    1
    13     6     7    1
    14     5     4    1
    15     4     9    1
    16     7    10    1
    17     7     8    1
    18    14    10    1
    19    14    13    1
    20     9     8    1
    21    10    11    1
    22    13    12    1
    23    11    12    1
    24    12    15    1
    25    16    15   ar
    26    16    17   ar
    27    15    20   ar
    28    17    18   ar
    29    20    19   ar
    30    18    19   ar
@<TRIPOS>MOLECULE
*****_MODEL4
 27 30 0 0 0
SMALL
GASTEIGER

@<TRIPOS>ATOM
      1  N         26.5170  -10.6700   16.4090 N.am    1  LIG1       -0.1622
      2  C         26.0830   -9.3160   16.2260 C.2     1  LIG1        0.3275
      3  O         25.3370   -9.1190   15.2290 O.2     1  LIG1       -0.2504
      4  N         26.1570   -8.4070   17.3310 N.am    1  LIG1       -0.2597
      5  C         25.6120   -7.0740   17.0670 C.3     1  LIG1        0.1124
      6  C         24.1320   -7.3400   16.8050 C.3     1  LIG1        0.0957
      7  N         23.6000   -7.8440   18.0700 N.3     1  LIG1       -0.2470
      8  C         24.2400   -8.9160   18.7950 C.3     1  LIG1        0.0957
      9  C         25.7300   -8.9610   18.6140 C.3     1  LIG1        0.1124
     10  C         22.6300   -6.9880   18.6910 C.3     1  LIG1        0.1997
     11  N         22.6590   -6.4680   19.9430 N.3     1  LIG1       -0.1714
     12  C         21.9300   -5.3360   20.0140 C.3     1  LIG1        0.1818
     13  N         20.6750   -5.5480   19.5410 N.3     1  LIG1       -0.1386
     14  S         21.0070   -6.6230   18.2690 S.3     1  LIG1       -0.0143
     15  C         22.2570   -4.2330   20.9320 C.ar    1  LIG1        0.0109
     16  C         23.4240   -4.2540   21.6910 C.ar    1  LIG1       -0.0015
     17  C         23.7140   -3.3180   22.6470 C.ar    1  LIG1       -0.0002
     18  C         22.8470   -2.2420   22.7510 C.ar    1  LIG1       -0.0000
     19  C         21.9310   -2.0190   21.7300 C.ar    1  LIG1       -0.0002
     20  C         21.7640   -2.9500   20.7120 C.ar    1  LIG1       -0.0015
     21  C         26.9210  -11.4170   15.2550 C.ar    1  LIG1        0.0746
     22  C         28.1930  -11.9650   15.3040 C.ar    1  LIG1        0.0166
     23  C         28.7540  -12.6340   14.2270 C.ar    1  LIG1        0.0010
     24  C         28.1910  -12.3810   12.9880 C.ar    1  LIG1       -0.0042
     25  C         27.1320  -11.4930   12.8560 C.ar    1  LIG1       -0.0206
     26  C         26.6830  -11.1710   11.4810 C.3     1  LIG1        0.0311
     27  C         26.4580  -11.0890   13.9870 C.ar    1  LIG1        0.0124
@<TRIPOS>BOND
     1    26    25    1
     2    25    24   ar
     3    25    27   ar
     4    24    23   ar
     5    27    21   ar
     6    23    22   ar
     7     3     2    2
     8    21    22   ar
     9    21     1    1
    10     2     1   am
    11     2     4   am
    12     6     5    1
    13     6     7    1
    14     5     4    1
    15     4     9    1
    16     7    10    1
    17     7     8    1
    18    14    10    1
    19    14    13    1
    20     9     8    1
    21    10    11    1
    22    13    12    1
    23    11    12    1
    24    12    15    1
    25    20    15   ar
    26    20    19   ar
    27    15    16   ar
    28    16    17   ar
    29    19    18   ar
    30    17    18   ar
@<TRIPOS>MOLECULE
*****_MODEL5
 27 30 0 0 0
SMALL
GASTEIGER

@<TRIPOS>ATOM
      1  N         25.1270  -11.2240   18.8250 N.am    1  LIG1       -0.1622
      2  C         24.7010  -10.0830   18.0700 C.2     1  LIG1        0.3275
      3  O         23.7090  -10.2750   17.3160 O.2     1  LIG1       -0.2504
      4  N         25.1140   -8.7770   18.4900 N.am    1  LIG1       -0.2597
      5  C         24.5580   -7.6740   17.7040 C.3     1  LIG1        0.1124
      6  C         23.0560   -7.7740   17.9630 C.3     1  LIG1        0.0957
      7  N         22.8900   -7.4910   19.3870 N.3     1  LIG1       -0.2470
      8  C         23.6760   -8.1620   20.3960 C.3     1  LIG1        0.0957
      9  C         25.0510   -8.5460   19.9330 C.3     1  LIG1        0.1124
     10  C         22.1630   -6.2880   19.6740 C.3     1  LIG1        0.1997
     11  N         22.2070   -5.5380   20.8040 N.3     1  LIG1       -0.1714
     12  C         21.8540   -4.2620   20.5510 C.3     1  LIG1        0.1818
     13  N         20.6570   -4.2160   19.9130 N.3     1  LIG1       -0.1386
     14  S         20.7890   -5.5880   18.9220 S.3     1  LIG1       -0.0143
     15  C         22.3950   -3.1210   21.3080 C.ar    1  LIG1        0.0109
     16  C         21.7940   -1.8660   21.2400 C.ar    1  LIG1       -0.0015
     17  C         22.3250   -0.7480   21.8240 C.ar    1  LIG1       -0.0002
     18  C         23.4450   -0.9300   22.6190 C.ar    1  LIG1       -0.0000
     19  C         23.7870   -2.2190   23.0090 C.ar    1  LIG1       -0.0002
     20  C         23.1270   -3.3190   22.4740 C.ar    1  LIG1       -0.0015
     21  C         25.1630  -12.4980   18.1710 C.ar    1  LIG1        0.0746
     22  C         25.6020  -12.4910   16.8570 C.ar    1  LIG1        0.0166
     23  C         25.6040  -13.6330   16.0690 C.ar    1  LIG1        0.0010
     24  C         24.7800  -14.6650   16.4860 C.ar    1  LIG1       -0.0042
     25  C         23.9970  -14.5350   17.6250 C.ar    1  LIG1       -0.0206
     26  C         23.0400  -15.6280   17.9200 C.3     1  LIG1        0.0311
     27  C         24.2560  -13.5000   18.4950 C.ar    1  LIG1        0.0124
@<TRIPOS>BOND
     1    23    24   ar
     2    23    22   ar
     3    24    25   ar
     4    22    21   ar
     5     3     2    2
     6    25    26    1
     7    25    27   ar
     8     5     6    1
     9     5     4    1
    10     6     7    1
    11     2     4   am
    12     2     1   am
    13    21    27   ar
    14    21     1    1
    15     4     9    1
    16    14    10    1
    17    14    13    1
    18     7    10    1
    19     7     8    1
    20    10    11    1
    21    13    12    1
    22     9     8    1
    23    12    11    1
    24    12    15    1
    25    16    15   ar
    26    16    17   ar
    27    15    20   ar
    28    17    18   ar
    29    20    19   ar
    30    18    19   ar
@<TRIPOS>MOLECULE
*****_MODEL6
 27 30 0 0 0
SMALL
GASTEIGER

@<TRIPOS>ATOM
      1  N         25.0660  -16.1380   18.2640 N.am    1  LIG1       -0.1622
      2  C         24.2310  -15.0500   18.6780 C.2     1  LIG1        0.3275
      3  O         24.3260  -14.7300   19.8940 O.2     1  LIG1       -0.2504
      4  N         23.6930  -14.1690   17.6850 N.am    1  LIG1       -0.2597
      5  C         22.9240  -13.0410   18.2160 C.3     1  LIG1        0.1124
      6  C         23.9600  -12.2450   19.0060 C.3     1  LIG1        0.0957
      7  N         24.9160  -11.7600   18.0130 N.3     1  LIG1       -0.2470
      8  C         25.5140  -12.6390   17.0360 C.3     1  LIG1        0.0957
      9  C         24.6300  -13.7830   16.6320 C.3     1  LIG1        0.1124
     10  C         24.9440  -10.3340   17.8610 C.3     1  LIG1        0.1997
     11  N         23.8900   -9.4850   17.7620 N.3     1  LIG1       -0.1714
     12  C         24.2300   -8.2440   18.1640 C.3     1  LIG1        0.1818
     13  N         25.3370   -7.8160   17.5040 N.3     1  LIG1       -0.1386
     14  S         26.2100   -9.2690   17.4030 S.3     1  LIG1       -0.0143
     15  C         23.2720   -7.3180   18.7890 C.ar    1  LIG1        0.0109
     16  C         23.6590   -6.0370   19.1730 C.ar    1  LIG1       -0.0015
     17  C         22.8440   -5.1830   19.8670 C.ar    1  LIG1       -0.0002
     18  C         21.5370   -5.5950   20.0710 C.ar    1  LIG1       -0.0000
     19  C         21.0530   -6.6730   19.3390 C.ar    1  LIG1       -0.0002
     20  C         21.9060   -7.4340   18.5490 C.ar    1  LIG1       -0.0015
     21  C         25.1850  -17.2740   19.1290 C.ar    1  LIG1        0.0746
     22  C         24.1420  -18.1850   19.0770 C.ar    1  LIG1        0.0166
     23  C         24.0740  -19.2830   19.9230 C.ar    1  LIG1        0.0010
     24  C         24.8370  -19.2160   21.0750 C.ar    1  LIG1       -0.0042
     25  C         25.6090  -18.0960   21.3540 C.ar    1  LIG1       -0.0206
     26  C         26.2820  -18.0460   22.6740 C.3     1  LIG1        0.0311
     27  C         25.8420  -17.1830   20.3500 C.ar    1  LIG1        0.0124
@<TRIPOS>BOND
     1     9     8    1
     2     9     4    1
     3     8     7    1
     4    14    13    1
     5    14    10    1
     6    13    12    1
     7     4     5    1
     8     4     2   am
     9    11    10    1
    10    11    12    1
    11    10     7    1
    12     7     6    1
    13    12    15    1
    14     5     6    1
    15     1     2   am
    16     1    21    1
    17    20    15   ar
    18    20    19   ar
    19     2     3    2
    20    15    16   ar
    21    22    21   ar
    22    22    23   ar
    23    21    27   ar
    24    16    17   ar
    25    19    18   ar
    26    17    18   ar
    27    23    24   ar
    28    27    25   ar
    29    24    25   ar
    30    25    26    1
@<TRIPOS>MOLECULE
*****_MODEL7
 27 30 0 0 0
SMALL
GASTEIGER

@<TRIPOS>ATOM
      1  N         25.0860  -16.1360   18.2300 N.am    1  LIG1       -0.1622
      2  C         24.2330  -15.0520   18.6200 C.2     1  LIG1        0.3275
      3  O         24.2920  -14.7310   19.8390 O.2     1  LIG1       -0.2504
      4  N         23.7180  -14.1750   17.6120 N.am    1  LIG1       -0.2597
      5  C         22.9270  -13.0510   18.1200 C.3     1  LIG1        0.1124
      6  C         23.9360  -12.2490   18.9390 C.3     1  LIG1        0.0957
      7  N         24.9160  -11.7580   17.9720 N.3     1  LIG1       -0.2470
      8  C         25.5470  -12.6340   17.0120 C.3     1  LIG1        0.0957
      9  C         24.6810  -13.7840   16.5850 C.3     1  LIG1        0.1124
     10  C         24.9400  -10.3320   17.8200 C.3     1  LIG1        0.1997
     11  N         23.8840   -9.4860   17.7280 N.3     1  LIG1       -0.1714
     12  C         24.2230   -8.2440   18.1270 C.3     1  LIG1        0.1818
     13  N         25.3250   -7.8140   17.4610 N.3     1  LIG1       -0.1386
     14  S         26.2000   -9.2640   17.3540 S.3     1  LIG1       -0.0143
     15  C         23.2660   -7.3210   18.7590 C.ar    1  LIG1        0.0109
     16  C         23.6460   -6.0300   19.1190 C.ar    1  LIG1       -0.0015
     17  C         22.8350   -5.1770   19.8170 C.ar    1  LIG1       -0.0002
     18  C         21.5370   -5.6000   20.0510 C.ar    1  LIG1       -0.0000
     19  C         21.0510   -6.6920   19.3420 C.ar    1  LIG1       -0.0002
     20  C         21.8970   -7.4540   18.5460 C.ar    1  LIG1       -0.0015
     21  C         25.1870  -17.2700   19.0990 C.ar    1  LIG1        0.0746
     22  C         24.1530  -18.1880   19.0170 C.ar    1  LIG1        0.0166
     23  C         24.0680  -19.2870   19.8610 C.ar    1  LIG1        0.0010
     24  C         24.7960  -19.2130   21.0350 C.ar    1  LIG1       -0.0042
     25  C         25.5520  -18.0890   21.3360 C.ar    1  LIG1       -0.0206
     26  C         26.1860  -18.0330   22.6750 C.3     1  LIG1        0.0311
     27  C         25.8080  -17.1740   20.3390 C.ar    1  LIG1        0.0124
@<TRIPOS>BOND
     1     9     8    1
     2     9     4    1
     3     8     7    1
     4    14    13    1
     5    14    10    1
     6    13    12    1
     7     4     5    1
     8     4     2   am
     9    11    10    1
    10    11    12    1
    11    10     7    1
    12     7     6    1
    13     5     6    1
    14    12    15    1
    15     1     2   am
    16     1    21    1
    17    20    15   ar
    18    20    19   ar
    19     2     3    2
    20    15    16   ar
    21    22    21   ar
    22    22    23   ar
    23    21    27   ar
    24    16    17   ar
    25    19    18   ar
    26    17    18   ar
    27    23    24   ar
    28    27    25   ar
    29    24    25   ar
    30    25    26    1
@<TRIPOS>MOLECULE
*****_MODEL8
 27 30 0 0 0
SMALL
GASTEIGER

@<TRIPOS>ATOM
      1  N         24.0590   -7.5490   18.9860 N.am    1  LIG1       -0.1622
      2  C         23.9010   -8.9080   18.5610 C.2     1  LIG1        0.3275
      3  O         22.9200   -9.1230   17.7980 O.2     1  LIG1       -0.2504
      4  N         25.0140   -9.8030   18.6650 N.am    1  LIG1       -0.2597
      5  C         24.7760  -11.1450   18.1260 C.3     1  LIG1        0.1124
      6  C         24.5390  -10.8950   16.6390 C.3     1  LIG1        0.0957
      7  N         25.8080  -10.3810   16.1270 N.3     1  LIG1       -0.2470
      8  C         26.5090   -9.2940   16.7710 C.3     1  LIG1        0.0957
      9  C         26.2990   -9.2380   18.2560 C.3     1  LIG1        0.1124
     10  C         26.4580  -11.2370   15.1770 C.3     1  LIG1        0.1997
     11  N         27.2910  -10.8810   14.1670 N.3     1  LIG1       -0.1714
     12  C         28.1110  -11.8990   13.8360 C.3     1  LIG1        0.1818
     13  N         27.3950  -13.0240   13.5800 N.3     1  LIG1       -0.1386
     14  S         26.1660  -12.8720   14.7410 S.3     1  LIG1       -0.0143
     15  C         29.4710  -11.6890   13.3160 C.ar    1  LIG1        0.0109
     16  C         29.6920  -10.9230   12.1730 C.ar    1  LIG1       -0.0015
     17  C         30.9200  -10.7980   11.5800 C.ar    1  LIG1       -0.0002
     18  C         31.9950  -11.3680   12.2420 C.ar    1  LIG1       -0.0000
     19  C         31.8330  -11.7640   13.5650 C.ar    1  LIG1       -0.0002
     20  C         30.5770  -11.7530   14.1590 C.ar    1  LIG1       -0.0015
     21  C         22.8890   -6.8110   19.3610 C.ar    1  LIG1        0.0746
     22  C         21.9170   -6.6810   18.3830 C.ar    1  LIG1        0.0166
     23  C         20.7740   -5.9180   18.5700 C.ar    1  LIG1        0.0010
     24  C         20.8290   -4.9710   19.5770 C.ar    1  LIG1       -0.0042
     25  C         21.9790   -4.8050   20.3360 C.ar    1  LIG1       -0.0206
     26  C         22.0030   -3.6750   21.2960 C.3     1  LIG1        0.0311
     27  C         22.9580   -5.7720   20.2810 C.ar    1  LIG1        0.0124
@<TRIPOS>BOND
     1    17    16   ar
     2    17    18   ar
     3    16    15   ar
     4    18    19   ar
     5    15    12    1
     6    15    20   ar
     7    19    20   ar
     8    13    12    1
     9    13    14    1
    10    12    11    1
    11    11    10    1
    12    14    10    1
    13    10     7    1
    14     7     6    1
    15     7     8    1
    16     6     5    1
    17     8     9    1
    18     3     2    2
    19     5     4    1
    20     9     4    1
    21    22    23   ar
    22    22    21   ar
    23     2     4   am
    24     2     1   am
    25    23    24   ar
    26     1    21    1
    27    21    27   ar
    28    24    25   ar
    29    27    25   ar
    30    25    26    1
@<TRIPOS>MOLECULE
*****_MODEL9
 27 30 0 0 0
SMALL
GASTEIGER

@<TRIPOS>ATOM
      1  N         23.1550   -6.7140   18.5810 N.am    1  LIG1       -0.1622
      2  C         24.0690   -7.6730   19.1260 C.2     1  LIG1        0.3275
      3  O         23.7170   -8.1930   20.2190 O.2     1  LIG1       -0.2504
      4  N         25.0500   -8.2660   18.2660 N.am    1  LIG1       -0.2597
      5  C         25.8800   -9.2940   18.8970 C.3     1  LIG1        0.1124
      6  C         24.8780  -10.3890   19.2550 C.3     1  LIG1        0.0957
      7  N         24.3740  -10.8860   17.9760 N.3     1  LIG1       -0.2470
      8  C         23.8850   -9.9940   16.9500 C.3     1  LIG1        0.0957
      9  C         24.5580   -8.6530   16.9450 C.3     1  LIG1        0.1124
     10  C         24.7190  -12.2480   17.6880 C.3     1  LIG1        0.1997
     11  N         24.3610  -13.3610   18.3770 N.3     1  LIG1       -0.1714
     12  C         24.3820  -14.4490   17.5820 C.3     1  LIG1        0.1818
     13  N         25.5820  -14.5580   16.9560 N.3     1  LIG1       -0.1386
     14  S         25.9250  -12.9210   16.6700 S.3     1  LIG1       -0.0143
     15  C         23.4820  -15.5970   17.7780 C.ar    1  LIG1        0.0109
     16  C         22.1780  -15.4160   18.2320 C.ar    1  LIG1       -0.0015
     17  C         21.3420  -16.4540   18.5460 C.ar    1  LIG1       -0.0002
     18  C         21.8000  -17.7310   18.2690 C.ar    1  LIG1       -0.0000
     19  C         22.9130  -17.8800   17.4480 C.ar    1  LIG1       -0.0002
     20  C         23.6560  -16.7730   17.0560 C.ar    1  LIG1       -0.0015
     21  C         22.5420   -5.7740   19.4720 C.ar    1  LIG1        0.0746
     22  C         21.4700   -5.0630   18.9560 C.ar    1  LIG1        0.0166
     23  C         20.8370   -4.0560   19.6700 C.ar    1  LIG1        0.0010
     24  C         21.5540   -3.5040   20.7170 C.ar    1  LIG1       -0.0042
     25  C         22.8380   -3.9430   21.0100 C.ar    1  LIG1       -0.0206
     26  C         23.5880   -3.2040   22.0520 C.3     1  LIG1        0.0311
     27  C         23.2830   -5.1190   20.4470 C.ar    1  LIG1        0.0124
@<TRIPOS>BOND
     1    14    13    1
     2    14    10    1
     3     9     8    1
     4     9     4    1
     5     8     7    1
     6    13    12    1
     7    20    19   ar
     8    20    15   ar
     9    19    18   ar
    10    12    15    1
    11    12    11    1
    12    10     7    1
    13    10    11    1
    14    15    16   ar
    15     7     6    1
    16    16    17   ar
    17     4     5    1
    18     4     2   am
    19    18    17   ar
    20     1     2   am
    21     1    21    1
    22     5     6    1
    23    22    21   ar
    24    22    23   ar
    25     2     3    2
    26    21    27   ar
    27    23    24   ar
    28    27    25   ar
    29    24    25   ar
    30    25    26    1
@<TRIPOS>MOLECULE
*****_MODEL10
 27 30 0 0 0
SMALL
GASTEIGER

@<TRIPOS>ATOM
      1  N         23.2080   -6.6640   18.5980 N.am    1  LIG1       -0.1622
      2  C         24.0800   -7.6480   19.1680 C.2     1  LIG1        0.3275
      3  O         23.6680   -8.1790   20.2350 O.2     1  LIG1       -0.2504
      4  N         25.0900   -8.2440   18.3450 N.am    1  LIG1       -0.2597
      5  C         25.8720   -9.2960   18.9970 C.3     1  LIG1        0.1124
      6  C         24.8370  -10.3790   19.2900 C.3     1  LIG1        0.0957
      7  N         24.3850  -10.8460   17.9800 N.3     1  LIG1       -0.2470
      8  C         23.9590   -9.9300   16.9480 C.3     1  LIG1        0.0957
      9  C         24.6540   -8.6010   16.9970 C.3     1  LIG1        0.1124
     10  C         24.7190  -12.2100   17.6860 C.3     1  LIG1        0.1997
     11  N         24.3460  -13.3240   18.3650 N.3     1  LIG1       -0.1714
     12  C         24.3650  -14.4070   17.5630 C.3     1  LIG1        0.1818
     13  N         25.5680  -14.5230   16.9460 N.3     1  LIG1       -0.1386
     14  S         25.9280  -12.8860   16.6730 S.3     1  LIG1       -0.0143
     15  C         23.4520  -15.5480   17.7430 C.ar    1  LIG1        0.0109
     16  C         23.8870  -16.8540   17.5330 C.ar    1  LIG1       -0.0015
     17  C         23.0520  -17.9380   17.5670 C.ar    1  LIG1       -0.0002
     18  C         21.7430  -17.7050   17.9570 C.ar    1  LIG1       -0.0000
     19  C         21.4280  -16.4900   18.5540 C.ar    1  LIG1       -0.0002
     20  C         22.3610  -15.4610   18.6020 C.ar    1  LIG1       -0.0015
     21  C         22.5700   -5.7280   19.4750 C.ar    1  LIG1        0.0746
     22  C         21.4620   -5.0750   18.9590 C.ar    1  LIG1        0.0166
     23  C         20.7980   -4.0770   19.6580 C.ar    1  LIG1        0.0010
     24  C         21.5080   -3.4700   20.6790 C.ar    1  LIG1       -0.0042
     25  C         22.8130   -3.8480   20.9630 C.ar    1  LIG1       -0.0206
     26  C         23.5470   -3.0530   21.9750 C.3     1  LIG1        0.0311
     27  C         23.2980   -5.0190   20.4220 C.ar    1  LIG1        0.0124
@<TRIPOS>BOND
     1    14    13    1
     2    14    10    1
     3    13    12    1
     4     8     9    1
     5     8     7    1
     6     9     4    1
     7    16    17   ar
     8    16    15   ar
     9    12    15    1
    10    12    11    1
    11    17    18   ar
    12    10     7    1
    13    10    11    1
    14    15    20   ar
    15    18    19   ar
    16     7     6    1
    17     4     5    1
    18     4     2   am
    19    19    20   ar
    20     1     2   am
    21     1    21    1
    22    22    21   ar
    23    22    23   ar
    24     5     6    1
    25     2     3    2
    26    21    27   ar
    27    23    24   ar
    28    27    25   ar
    29    24    25   ar
    30    25    26    1
