MODEL 1
REMARK NAME *****_MODEL1
REMARK  0 active torsions:
REMARK  status: ('A' for Active; 'I' for Inactive)
ROOT
ATOM      1  C   LIG d   1      29.467 -11.169  11.894  0.00  0.00     0.002 C 
ATOM      2  C   LIG d   1      28.226 -11.579  12.719  0.00  0.00     0.024 C 
ATOM      3  C   LIG d   1      28.204 -10.906  14.118  0.00  0.00     0.105 C 
ATOM      4  N   LIG d   1      26.998 -11.251  14.853  0.00  0.00    -0.313 N 
ATOM      5  C   LIG d   1      25.868 -10.329  14.799  0.00  0.00     0.131 C 
ATOM      6  C   LIG d   1      25.397  -9.866  16.133  0.00  0.00     0.000 A 
ATOM      7  C   LIG d   1      26.306  -9.299  17.058  0.00  0.00    -0.002 A 
ATOM      8  C   LIG d   1      25.880  -8.919  18.344  0.00  0.00    -0.000 A 
ATOM      9  C   LIG d   1      24.533  -9.076  18.714  0.00  0.00    -0.000 A 
ATOM     10  C   LIG d   1      23.612  -9.612  17.796  0.00  0.00    -0.000 A 
ATOM     11  C   LIG d   1      24.040 -10.002  16.514  0.00  0.00    -0.002 A 
ATOM     12  C   LIG d   1      26.928 -12.467  15.533  0.00  0.00     0.257 C 
ATOM     13  O   LIG d   1      27.914 -13.240  15.599  0.00  0.00    -0.267 OA
ATOM     14  C   LIG d   1      25.774 -12.939  16.194  0.00  0.00     0.056 A 
ATOM     15  C   LIG d   1      25.687 -12.900  17.604  0.00  0.00     0.005 A 
ATOM     16  C   LIG d   1      24.512 -13.317  18.254  0.00  0.00     0.013 A 
ATOM     17  C   LIG d   1      23.417 -13.797  17.505  0.00  0.00     0.105 A 
ATOM     18  C   LIG d   1      23.519 -13.873  16.100  0.00  0.00     0.013 A 
ATOM     19  C   LIG d   1      24.688 -13.444  15.448  0.00  0.00     0.005 A 
ATOM     20  S   LIG d   1      21.910 -14.301  18.290  0.00  0.00     0.285 S 
ATOM     21  O   LIG d   1      20.677 -13.506  17.637  0.00  0.00    -0.198 OA
ATOM     22  O   LIG d   1      21.920 -14.001  19.866  0.00  0.00    -0.198 OA
ATOM     23  N   LIG d   1      21.652 -15.976  18.016  0.00  0.00    -0.158 NA
ATOM     24  C   LIG d   1      22.463 -16.998  18.409  0.00  0.00     0.095 A 
ATOM     25  C   LIG d   1      23.510 -16.880  19.356  0.00  0.00     0.031 A 
ATOM     26  C   LIG d   1      24.301 -17.995  19.700  0.00  0.00     0.059 A 
ATOM     27  C   LIG d   1      24.053 -19.243  19.095  0.00  0.00     0.011 A 
ATOM     28  C   LIG d   1      23.020 -19.371  18.151  0.00  0.00     0.002 A 
ATOM     29  C   LIG d   1      22.229 -18.258  17.816  0.00  0.00     0.020 A 
ATOM     30 CL   LIG d   1      25.544 -17.834  20.838  0.00  0.00    -0.082 c 
ENDROOT
TORSDOF 0
ENDMDL
MODEL 2
REMARK NAME *****_MODEL2
REMARK  0 active torsions:
REMARK  status: ('A' for Active; 'I' for Inactive)
ROOT
ATOM      1  C   LIG d   1      29.445 -11.171  11.862  0.00  0.00     0.002 C 
ATOM      2  C   LIG d   1      28.207 -11.576  12.694  0.00  0.00     0.024 C 
ATOM      3  C   LIG d   1      28.195 -10.905  14.094  0.00  0.00     0.105 C 
ATOM      4  N   LIG d   1      26.992 -11.246  14.835  0.00  0.00    -0.313 N 
ATOM      5  C   LIG d   1      25.865 -10.319  14.787  0.00  0.00     0.131 C 
ATOM      6  C   LIG d   1      25.403  -9.856  16.124  0.00  0.00     0.000 A 
ATOM      7  C   LIG d   1      26.320  -9.294  17.045  0.00  0.00    -0.002 A 
ATOM      8  C   LIG d   1      25.902  -8.914  18.334  0.00  0.00    -0.000 A 
ATOM      9  C   LIG d   1      24.557  -9.065  18.711  0.00  0.00    -0.000 A 
ATOM     10  C   LIG d   1      23.628  -9.597  17.797  0.00  0.00    -0.000 A 
ATOM     11  C   LIG d   1      24.048  -9.987  16.512  0.00  0.00    -0.002 A 
ATOM     12  C   LIG d   1      26.920 -12.463  15.513  0.00  0.00     0.257 C 
ATOM     13  O   LIG d   1      27.903 -13.239  15.573  0.00  0.00    -0.267 OA
ATOM     14  C   LIG d   1      25.768 -12.930  16.180  0.00  0.00     0.056 A 
ATOM     15  C   LIG d   1      25.689 -12.892  17.590  0.00  0.00     0.005 A 
ATOM     16  C   LIG d   1      24.515 -13.305  18.246  0.00  0.00     0.013 A 
ATOM     17  C   LIG d   1      23.414 -13.780  17.502  0.00  0.00     0.105 A 
ATOM     18  C   LIG d   1      23.509 -13.855  16.097  0.00  0.00     0.013 A 
ATOM     19  C   LIG d   1      24.676 -13.430  15.439  0.00  0.00     0.005 A 
ATOM     20  S   LIG d   1      21.909 -14.279  18.295  0.00  0.00     0.285 S 
ATOM     21  O   LIG d   1      20.676 -13.478  17.649  0.00  0.00    -0.198 OA
ATOM     22  O   LIG d   1      21.929 -13.980  19.872  0.00  0.00    -0.198 OA
ATOM     23  N   LIG d   1      21.643 -15.953  18.020  0.00  0.00    -0.158 NA
ATOM     24  C   LIG d   1      22.452 -16.979  18.409  0.00  0.00     0.095 A 
ATOM     25  C   LIG d   1      23.505 -16.866  19.349  0.00  0.00     0.031 A 
ATOM     26  C   LIG d   1      24.293 -17.984  19.688  0.00  0.00     0.059 A 
ATOM     27  C   LIG d   1      24.036 -19.231  19.083  0.00  0.00     0.011 A 
ATOM     28  C   LIG d   1      22.998 -19.354  18.145  0.00  0.00     0.002 A 
ATOM     29  C   LIG d   1      22.209 -18.236  17.815  0.00  0.00     0.020 A 
ATOM     30 CL   LIG d   1      25.542 -17.830  20.820  0.00  0.00    -0.082 c 
ENDROOT
TORSDOF 0
ENDMDL
MODEL 3
REMARK NAME *****_MODEL3
REMARK  0 active torsions:
REMARK  status: ('A' for Active; 'I' for Inactive)
ROOT
ATOM      1  C   LIG d   1      29.465 -11.169  11.897  0.00  0.00     0.002 C 
ATOM      2  C   LIG d   1      28.224 -11.579  12.722  0.00  0.00     0.024 C 
ATOM      3  C   LIG d   1      28.202 -10.905  14.121  0.00  0.00     0.105 C 
ATOM      4  N   LIG d   1      26.996 -11.250  14.856  0.00  0.00    -0.313 N 
ATOM      5  C   LIG d   1      25.866 -10.329  14.800  0.00  0.00     0.131 C 
ATOM      6  C   LIG d   1      25.394  -9.865  16.134  0.00  0.00     0.000 A 
ATOM      7  C   LIG d   1      26.303  -9.296  17.059  0.00  0.00    -0.002 A 
ATOM      8  C   LIG d   1      25.877  -8.916  18.344  0.00  0.00    -0.000 A 
ATOM      9  C   LIG d   1      24.530  -9.073  18.714  0.00  0.00    -0.000 A 
ATOM     10  C   LIG d   1      23.609  -9.611  17.797  0.00  0.00    -0.000 A 
ATOM     11  C   LIG d   1      24.037 -10.001  16.515  0.00  0.00    -0.002 A 
ATOM     12  C   LIG d   1      26.926 -12.466  15.536  0.00  0.00     0.257 C 
ATOM     13  O   LIG d   1      27.913 -13.238  15.603  0.00  0.00    -0.267 OA
ATOM     14  C   LIG d   1      25.773 -12.937  16.198  0.00  0.00     0.056 A 
ATOM     15  C   LIG d   1      25.686 -12.897  17.607  0.00  0.00     0.005 A 
ATOM     16  C   LIG d   1      24.511 -13.314  18.258  0.00  0.00     0.013 A 
ATOM     17  C   LIG d   1      23.416 -13.796  17.509  0.00  0.00     0.105 A 
ATOM     18  C   LIG d   1      23.519 -13.873  16.105  0.00  0.00     0.013 A 
ATOM     19  C   LIG d   1      24.687 -13.443  15.452  0.00  0.00     0.005 A 
ATOM     20  S   LIG d   1      21.909 -14.299  18.295  0.00  0.00     0.285 S 
ATOM     21  O   LIG d   1      20.676 -13.505  17.641  0.00  0.00    -0.198 OA
ATOM     22  O   LIG d   1      21.919 -13.998  19.871  0.00  0.00    -0.198 OA
ATOM     23  N   LIG d   1      21.652 -15.975  18.022  0.00  0.00    -0.158 NA
ATOM     24  C   LIG d   1      22.464 -16.997  18.417  0.00  0.00     0.095 A 
ATOM     25  C   LIG d   1      23.511 -16.877  19.363  0.00  0.00     0.031 A 
ATOM     26  C   LIG d   1      24.302 -17.991  19.708  0.00  0.00     0.059 A 
ATOM     27  C   LIG d   1      24.055 -19.240  19.104  0.00  0.00     0.011 A 
ATOM     28  C   LIG d   1      23.022 -19.370  18.160  0.00  0.00     0.002 A 
ATOM     29  C   LIG d   1      22.230 -18.256  17.824  0.00  0.00     0.020 A 
ATOM     30 CL   LIG d   1      25.545 -17.829  20.847  0.00  0.00    -0.082 c 
ENDROOT
TORSDOF 0
ENDMDL
MODEL 4
REMARK NAME *****_MODEL4
REMARK  0 active torsions:
REMARK  status: ('A' for Active; 'I' for Inactive)
ROOT
ATOM      1  C   LIG d   1      29.464 -11.169  11.898  0.00  0.00     0.002 C 
ATOM      2  C   LIG d   1      28.223 -11.579  12.723  0.00  0.00     0.024 C 
ATOM      3  C   LIG d   1      28.200 -10.904  14.122  0.00  0.00     0.105 C 
ATOM      4  N   LIG d   1      26.995 -11.250  14.857  0.00  0.00    -0.313 N 
ATOM      5  C   LIG d   1      25.864 -10.329  14.801  0.00  0.00     0.131 C 
ATOM      6  C   LIG d   1      25.392  -9.865  16.134  0.00  0.00     0.000 A 
ATOM      7  C   LIG d   1      26.301  -9.296  17.059  0.00  0.00    -0.002 A 
ATOM      8  C   LIG d   1      25.874  -8.915  18.344  0.00  0.00    -0.000 A 
ATOM      9  C   LIG d   1      24.527  -9.072  18.714  0.00  0.00    -0.000 A 
ATOM     10  C   LIG d   1      23.607  -9.611  17.797  0.00  0.00    -0.000 A 
ATOM     11  C   LIG d   1      24.035 -10.002  16.515  0.00  0.00    -0.002 A 
ATOM     12  C   LIG d   1      26.926 -12.465  15.538  0.00  0.00     0.257 C 
ATOM     13  O   LIG d   1      27.912 -13.237  15.605  0.00  0.00    -0.267 OA
ATOM     14  C   LIG d   1      25.772 -12.937  16.199  0.00  0.00     0.056 A 
ATOM     15  C   LIG d   1      25.685 -12.896  17.609  0.00  0.00     0.005 A 
ATOM     16  C   LIG d   1      24.510 -13.313  18.260  0.00  0.00     0.013 A 
ATOM     17  C   LIG d   1      23.415 -13.796  17.511  0.00  0.00     0.105 A 
ATOM     18  C   LIG d   1      23.518 -13.874  16.107  0.00  0.00     0.013 A 
ATOM     19  C   LIG d   1      24.687 -13.444  15.454  0.00  0.00     0.005 A 
ATOM     20  S   LIG d   1      21.909 -14.300  18.297  0.00  0.00     0.285 S 
ATOM     21  O   LIG d   1      20.676 -13.507  17.642  0.00  0.00    -0.198 OA
ATOM     22  O   LIG d   1      21.919 -13.998  19.873  0.00  0.00    -0.198 OA
ATOM     23  N   LIG d   1      21.653 -15.976  18.025  0.00  0.00    -0.158 NA
ATOM     24  C   LIG d   1      22.465 -16.997  18.420  0.00  0.00     0.095 A 
ATOM     25  C   LIG d   1      23.512 -16.876  19.366  0.00  0.00     0.031 A 
ATOM     26  C   LIG d   1      24.304 -17.990  19.712  0.00  0.00     0.059 A 
ATOM     27  C   LIG d   1      24.057 -19.239  19.109  0.00  0.00     0.011 A 
ATOM     28  C   LIG d   1      23.024 -19.370  18.165  0.00  0.00     0.002 A 
ATOM     29  C   LIG d   1      22.232 -18.257  17.828  0.00  0.00     0.020 A 
ATOM     30 CL   LIG d   1      25.546 -17.826  20.851  0.00  0.00    -0.082 c 
ENDROOT
TORSDOF 0
ENDMDL
MODEL 5
REMARK NAME *****_MODEL5
REMARK  0 active torsions:
REMARK  status: ('A' for Active; 'I' for Inactive)
ROOT
ATOM      1  C   LIG d   1      29.443 -11.170  11.872  0.00  0.00     0.002 C 
ATOM      2  C   LIG d   1      28.205 -11.579  12.702  0.00  0.00     0.024 C 
ATOM      3  C   LIG d   1      28.190 -10.905  14.101  0.00  0.00     0.105 C 
ATOM      4  N   LIG d   1      26.987 -11.249  14.841  0.00  0.00    -0.313 N 
ATOM      5  C   LIG d   1      25.857 -10.327  14.791  0.00  0.00     0.131 C 
ATOM      6  C   LIG d   1      25.392  -9.863  16.127  0.00  0.00     0.000 A 
ATOM      7  C   LIG d   1      26.305  -9.296  17.048  0.00  0.00    -0.002 A 
ATOM      8  C   LIG d   1      25.885  -8.916  18.336  0.00  0.00    -0.000 A 
ATOM      9  C   LIG d   1      24.540  -9.071  18.711  0.00  0.00    -0.000 A 
ATOM     10  C   LIG d   1      23.614  -9.607  17.797  0.00  0.00    -0.000 A 
ATOM     11  C   LIG d   1      24.037  -9.998  16.514  0.00  0.00    -0.002 A 
ATOM     12  C   LIG d   1      26.918 -12.466  15.522  0.00  0.00     0.257 C 
ATOM     13  O   LIG d   1      27.904 -13.239  15.584  0.00  0.00    -0.267 OA
ATOM     14  C   LIG d   1      25.767 -12.936  16.188  0.00  0.00     0.056 A 
ATOM     15  C   LIG d   1      25.686 -12.896  17.598  0.00  0.00     0.005 A 
ATOM     16  C   LIG d   1      24.514 -13.312  18.253  0.00  0.00     0.013 A 
ATOM     17  C   LIG d   1      23.415 -13.792  17.509  0.00  0.00     0.105 A 
ATOM     18  C   LIG d   1      23.511 -13.869  16.104  0.00  0.00     0.013 A 
ATOM     19  C   LIG d   1      24.678 -13.440  15.446  0.00  0.00     0.005 A 
ATOM     20  S   LIG d   1      21.911 -14.294  18.300  0.00  0.00     0.285 S 
ATOM     21  O   LIG d   1      20.676 -13.499  17.652  0.00  0.00    -0.198 OA
ATOM     22  O   LIG d   1      21.928 -13.994  19.877  0.00  0.00    -0.198 OA
ATOM     23  N   LIG d   1      21.650 -15.970  18.028  0.00  0.00    -0.158 NA
ATOM     24  C   LIG d   1      22.463 -16.992  18.419  0.00  0.00     0.095 A 
ATOM     25  C   LIG d   1      23.514 -16.874  19.361  0.00  0.00     0.031 A 
ATOM     26  C   LIG d   1      24.306 -17.990  19.702  0.00  0.00     0.059 A 
ATOM     27  C   LIG d   1      24.054 -19.238  19.099  0.00  0.00     0.011 A 
ATOM     28  C   LIG d   1      23.017 -19.366  18.159  0.00  0.00     0.002 A 
ATOM     29  C   LIG d   1      22.225 -18.252  17.827  0.00  0.00     0.020 A 
ATOM     30 CL   LIG d   1      25.553 -17.829  20.836  0.00  0.00    -0.082 c 
ENDROOT
TORSDOF 0
ENDMDL
MODEL 6
REMARK NAME *****_MODEL6
REMARK  0 active torsions:
REMARK  status: ('A' for Active; 'I' for Inactive)
ROOT
ATOM      1  C   LIG d   1      29.464 -11.170  11.893  0.00  0.00     0.002 C 
ATOM      2  C   LIG d   1      28.223 -11.579  12.720  0.00  0.00     0.024 C 
ATOM      3  C   LIG d   1      28.202 -10.904  14.118  0.00  0.00     0.105 C 
ATOM      4  N   LIG d   1      26.997 -11.248  14.854  0.00  0.00    -0.313 N 
ATOM      5  C   LIG d   1      25.867 -10.326  14.799  0.00  0.00     0.131 C 
ATOM      6  C   LIG d   1      25.397  -9.862  16.133  0.00  0.00     0.000 A 
ATOM      7  C   LIG d   1      26.307  -9.294  17.057  0.00  0.00    -0.002 A 
ATOM      8  C   LIG d   1      25.881  -8.913  18.343  0.00  0.00    -0.000 A 
ATOM      9  C   LIG d   1      24.535  -9.069  18.714  0.00  0.00    -0.000 A 
ATOM     10  C   LIG d   1      23.613  -9.606  17.797  0.00  0.00    -0.000 A 
ATOM     11  C   LIG d   1      24.040  -9.997  16.515  0.00  0.00    -0.002 A 
ATOM     12  C   LIG d   1      26.927 -12.464  15.535  0.00  0.00     0.257 C 
ATOM     13  O   LIG d   1      27.912 -13.237  15.601  0.00  0.00    -0.267 OA
ATOM     14  C   LIG d   1      25.773 -12.935  16.197  0.00  0.00     0.056 A 
ATOM     15  C   LIG d   1      25.687 -12.894  17.607  0.00  0.00     0.005 A 
ATOM     16  C   LIG d   1      24.512 -13.310  18.258  0.00  0.00     0.013 A 
ATOM     17  C   LIG d   1      23.416 -13.791  17.510  0.00  0.00     0.105 A 
ATOM     18  C   LIG d   1      23.518 -13.868  16.106  0.00  0.00     0.013 A 
ATOM     19  C   LIG d   1      24.687 -13.440  15.452  0.00  0.00     0.005 A 
ATOM     20  S   LIG d   1      21.910 -14.294  18.296  0.00  0.00     0.285 S 
ATOM     21  O   LIG d   1      20.677 -13.499  17.643  0.00  0.00    -0.198 OA
ATOM     22  O   LIG d   1      21.921 -13.992  19.873  0.00  0.00    -0.198 OA
ATOM     23  N   LIG d   1      21.651 -15.970  18.024  0.00  0.00    -0.158 NA
ATOM     24  C   LIG d   1      22.462 -16.991  18.418  0.00  0.00     0.095 A 
ATOM     25  C   LIG d   1      23.510 -16.872  19.364  0.00  0.00     0.031 A 
ATOM     26  C   LIG d   1      24.301 -17.987  19.709  0.00  0.00     0.059 A 
ATOM     27  C   LIG d   1      24.052 -19.236  19.105  0.00  0.00     0.011 A 
ATOM     28  C   LIG d   1      23.019 -19.365  18.162  0.00  0.00     0.002 A 
ATOM     29  C   LIG d   1      22.228 -18.251  17.826  0.00  0.00     0.020 A 
ATOM     30 CL   LIG d   1      25.545 -17.825  20.847  0.00  0.00    -0.082 c 
ENDROOT
TORSDOF 0
ENDMDL
MODEL 7
REMARK NAME *****_MODEL7
REMARK  0 active torsions:
REMARK  status: ('A' for Active; 'I' for Inactive)
ROOT
ATOM      1  C   LIG d   1      29.474 -11.169  11.910  0.00  0.00     0.002 C 
ATOM      2  C   LIG d   1      28.232 -11.579  12.733  0.00  0.00     0.024 C 
ATOM      3  C   LIG d   1      28.206 -10.903  14.131  0.00  0.00     0.105 C 
ATOM      4  N   LIG d   1      27.000 -11.248  14.864  0.00  0.00    -0.313 N 
ATOM      5  C   LIG d   1      25.869 -10.328  14.805  0.00  0.00     0.131 C 
ATOM      6  C   LIG d   1      25.394  -9.862  16.137  0.00  0.00     0.000 A 
ATOM      7  C   LIG d   1      26.301  -9.292  17.063  0.00  0.00    -0.002 A 
ATOM      8  C   LIG d   1      25.872  -8.910  18.347  0.00  0.00    -0.000 A 
ATOM      9  C   LIG d   1      24.524  -9.067  18.715  0.00  0.00    -0.000 A 
ATOM     10  C   LIG d   1      23.606  -9.607  17.796  0.00  0.00    -0.000 A 
ATOM     11  C   LIG d   1      24.037  -9.999  16.516  0.00  0.00    -0.002 A 
ATOM     12  C   LIG d   1      26.929 -12.463  15.546  0.00  0.00     0.257 C 
ATOM     13  O   LIG d   1      27.916 -13.234  15.616  0.00  0.00    -0.267 OA
ATOM     14  C   LIG d   1      25.775 -12.934  16.206  0.00  0.00     0.056 A 
ATOM     15  C   LIG d   1      25.685 -12.892  17.615  0.00  0.00     0.005 A 
ATOM     16  C   LIG d   1      24.509 -13.309  18.264  0.00  0.00     0.013 A 
ATOM     17  C   LIG d   1      23.416 -13.792  17.514  0.00  0.00     0.105 A 
ATOM     18  C   LIG d   1      23.521 -13.871  16.110  0.00  0.00     0.013 A 
ATOM     19  C   LIG d   1      24.691 -13.442  15.458  0.00  0.00     0.005 A 
ATOM     20  S   LIG d   1      21.908 -14.296  18.297  0.00  0.00     0.285 S 
ATOM     21  O   LIG d   1      20.676 -13.504  17.639  0.00  0.00    -0.198 OA
ATOM     22  O   LIG d   1      21.915 -13.992  19.873  0.00  0.00    -0.198 OA
ATOM     23  N   LIG d   1      21.652 -15.973  18.026  0.00  0.00    -0.158 NA
ATOM     24  C   LIG d   1      22.464 -16.993  18.424  0.00  0.00     0.095 A 
ATOM     25  C   LIG d   1      23.509 -16.871  19.372  0.00  0.00     0.031 A 
ATOM     26  C   LIG d   1      24.301 -17.984  19.720  0.00  0.00     0.059 A 
ATOM     27  C   LIG d   1      24.055 -19.234  19.117  0.00  0.00     0.011 A 
ATOM     28  C   LIG d   1      23.024 -19.366  18.172  0.00  0.00     0.002 A 
ATOM     29  C   LIG d   1      22.232 -18.253  17.832  0.00  0.00     0.020 A 
ATOM     30 CL   LIG d   1      25.541 -17.820  20.861  0.00  0.00    -0.082 c 
ENDROOT
TORSDOF 0
ENDMDL
MODEL 8
REMARK NAME *****_MODEL8
REMARK  0 active torsions:
REMARK  status: ('A' for Active; 'I' for Inactive)
ROOT
ATOM      1  C   LIG d   1      29.464 -11.169  11.895  0.00  0.00     0.002 C 
ATOM      2  C   LIG d   1      28.223 -11.579  12.721  0.00  0.00     0.024 C 
ATOM      3  C   LIG d   1      28.201 -10.905  14.119  0.00  0.00     0.105 C 
ATOM      4  N   LIG d   1      26.996 -11.250  14.855  0.00  0.00    -0.313 N 
ATOM      5  C   LIG d   1      25.865 -10.329  14.799  0.00  0.00     0.131 C 
ATOM      6  C   LIG d   1      25.394  -9.865  16.133  0.00  0.00     0.000 A 
ATOM      7  C   LIG d   1      26.303  -9.297  17.058  0.00  0.00    -0.002 A 
ATOM      8  C   LIG d   1      25.877  -8.917  18.344  0.00  0.00    -0.000 A 
ATOM      9  C   LIG d   1      24.530  -9.074  18.714  0.00  0.00    -0.000 A 
ATOM     10  C   LIG d   1      23.609  -9.611  17.796  0.00  0.00    -0.000 A 
ATOM     11  C   LIG d   1      24.037 -10.002  16.514  0.00  0.00    -0.002 A 
ATOM     12  C   LIG d   1      26.926 -12.466  15.535  0.00  0.00     0.257 C 
ATOM     13  O   LIG d   1      27.912 -13.238  15.601  0.00  0.00    -0.267 OA
ATOM     14  C   LIG d   1      25.772 -12.938  16.196  0.00  0.00     0.056 A 
ATOM     15  C   LIG d   1      25.686 -12.898  17.606  0.00  0.00     0.005 A 
ATOM     16  C   LIG d   1      24.511 -13.315  18.257  0.00  0.00     0.013 A 
ATOM     17  C   LIG d   1      23.416 -13.796  17.508  0.00  0.00     0.105 A 
ATOM     18  C   LIG d   1      23.518 -13.873  16.104  0.00  0.00     0.013 A 
ATOM     19  C   LIG d   1      24.687 -13.444  15.451  0.00  0.00     0.005 A 
ATOM     20  S   LIG d   1      21.909 -14.300  18.294  0.00  0.00     0.285 S 
ATOM     21  O   LIG d   1      20.676 -13.506  17.640  0.00  0.00    -0.198 OA
ATOM     22  O   LIG d   1      21.920 -13.999  19.870  0.00  0.00    -0.198 OA
ATOM     23  N   LIG d   1      21.652 -15.976  18.021  0.00  0.00    -0.158 NA
ATOM     24  C   LIG d   1      22.464 -16.997  18.415  0.00  0.00     0.095 A 
ATOM     25  C   LIG d   1      23.511 -16.878  19.361  0.00  0.00     0.031 A 
ATOM     26  C   LIG d   1      24.303 -17.992  19.706  0.00  0.00     0.059 A 
ATOM     27  C   LIG d   1      24.055 -19.241  19.102  0.00  0.00     0.011 A 
ATOM     28  C   LIG d   1      23.022 -19.370  18.159  0.00  0.00     0.002 A 
ATOM     29  C   LIG d   1      22.230 -18.257  17.822  0.00  0.00     0.020 A 
ATOM     30 CL   LIG d   1      25.545 -17.830  20.845  0.00  0.00    -0.082 c 
ENDROOT
TORSDOF 0
ENDMDL
MODEL 9
REMARK NAME *****_MODEL9
REMARK  0 active torsions:
REMARK  status: ('A' for Active; 'I' for Inactive)
ROOT
ATOM      1  C   LIG d   1      29.447 -11.176  11.872  0.00  0.00     0.002 C 
ATOM      2  C   LIG d   1      28.209 -11.583  12.704  0.00  0.00     0.024 C 
ATOM      3  C   LIG d   1      28.194 -10.908  14.102  0.00  0.00     0.105 C 
ATOM      4  N   LIG d   1      26.991 -11.250  14.842  0.00  0.00    -0.313 N 
ATOM      5  C   LIG d   1      25.862 -10.327  14.791  0.00  0.00     0.131 C 
ATOM      6  C   LIG d   1      25.398  -9.861  16.127  0.00  0.00     0.000 A 
ATOM      7  C   LIG d   1      26.311  -9.294  17.047  0.00  0.00    -0.002 A 
ATOM      8  C   LIG d   1      25.891  -8.912  18.334  0.00  0.00    -0.000 A 
ATOM      9  C   LIG d   1      24.546  -9.066  18.710  0.00  0.00    -0.000 A 
ATOM     10  C   LIG d   1      23.620  -9.602  17.797  0.00  0.00    -0.000 A 
ATOM     11  C   LIG d   1      24.042  -9.994  16.514  0.00  0.00    -0.002 A 
ATOM     12  C   LIG d   1      26.922 -12.465  15.524  0.00  0.00     0.257 C 
ATOM     13  O   LIG d   1      27.906 -13.239  15.587  0.00  0.00    -0.267 OA
ATOM     14  C   LIG d   1      25.770 -12.934  16.191  0.00  0.00     0.056 A 
ATOM     15  C   LIG d   1      25.689 -12.893  17.601  0.00  0.00     0.005 A 
ATOM     16  C   LIG d   1      24.516 -13.307  18.256  0.00  0.00     0.013 A 
ATOM     17  C   LIG d   1      23.417 -13.787  17.513  0.00  0.00     0.105 A 
ATOM     18  C   LIG d   1      23.513 -13.865  16.108  0.00  0.00     0.013 A 
ATOM     19  C   LIG d   1      24.680 -13.438  15.450  0.00  0.00     0.005 A 
ATOM     20  S   LIG d   1      21.912 -14.287  18.305  0.00  0.00     0.285 S 
ATOM     21  O   LIG d   1      20.678 -13.491  17.656  0.00  0.00    -0.198 OA
ATOM     22  O   LIG d   1      21.930 -13.985  19.881  0.00  0.00    -0.198 OA
ATOM     23  N   LIG d   1      21.651 -15.963  18.034  0.00  0.00    -0.158 NA
ATOM     24  C   LIG d   1      22.462 -16.985  18.426  0.00  0.00     0.095 A 
ATOM     25  C   LIG d   1      23.513 -16.867  19.368  0.00  0.00     0.031 A 
ATOM     26  C   LIG d   1      24.304 -17.983  19.710  0.00  0.00     0.059 A 
ATOM     27  C   LIG d   1      24.051 -19.232  19.108  0.00  0.00     0.011 A 
ATOM     28  C   LIG d   1      23.014 -19.360  18.169  0.00  0.00     0.002 A 
ATOM     29  C   LIG d   1      22.223 -18.245  17.835  0.00  0.00     0.020 A 
ATOM     30 CL   LIG d   1      25.552 -17.823  20.843  0.00  0.00    -0.082 c 
ENDROOT
TORSDOF 0
ENDMDL
MODEL 10
REMARK NAME *****_MODEL10
REMARK  0 active torsions:
REMARK  status: ('A' for Active; 'I' for Inactive)
ROOT
ATOM      1  C   LIG d   1      29.457 -11.170  11.892  0.00  0.00     0.002 C 
ATOM      2  C   LIG d   1      28.218 -11.580  12.719  0.00  0.00     0.024 C 
ATOM      3  C   LIG d   1      28.196 -10.904  14.117  0.00  0.00     0.105 C 
ATOM      4  N   LIG d   1      26.992 -11.249  14.854  0.00  0.00    -0.313 N 
ATOM      5  C   LIG d   1      25.861 -10.329  14.798  0.00  0.00     0.131 C 
ATOM      6  C   LIG d   1      25.391  -9.863  16.132  0.00  0.00     0.000 A 
ATOM      7  C   LIG d   1      26.300  -9.294  17.055  0.00  0.00    -0.002 A 
ATOM      8  C   LIG d   1      25.875  -8.912  18.341  0.00  0.00    -0.000 A 
ATOM      9  C   LIG d   1      24.528  -9.069  18.712  0.00  0.00    -0.000 A 
ATOM     10  C   LIG d   1      23.607  -9.608  17.796  0.00  0.00    -0.000 A 
ATOM     11  C   LIG d   1      24.034 -10.000  16.515  0.00  0.00    -0.002 A 
ATOM     12  C   LIG d   1      26.923 -12.464  15.536  0.00  0.00     0.257 C 
ATOM     13  O   LIG d   1      27.910 -13.235  15.602  0.00  0.00    -0.267 OA
ATOM     14  C   LIG d   1      25.771 -12.936  16.199  0.00  0.00     0.056 A 
ATOM     15  C   LIG d   1      25.685 -12.894  17.608  0.00  0.00     0.005 A 
ATOM     16  C   LIG d   1      24.511 -13.311  18.260  0.00  0.00     0.013 A 
ATOM     17  C   LIG d   1      23.415 -13.794  17.513  0.00  0.00     0.105 A 
ATOM     18  C   LIG d   1      23.517 -13.872  16.109  0.00  0.00     0.013 A 
ATOM     19  C   LIG d   1      24.685 -13.443  15.454  0.00  0.00     0.005 A 
ATOM     20  S   LIG d   1      21.910 -14.297  18.301  0.00  0.00     0.285 S 
ATOM     21  O   LIG d   1      20.676 -13.505  17.647  0.00  0.00    -0.198 OA
ATOM     22  O   LIG d   1      21.922 -13.994  19.877  0.00  0.00    -0.198 OA
ATOM     23  N   LIG d   1      21.653 -15.974  18.030  0.00  0.00    -0.158 NA
ATOM     24  C   LIG d   1      22.466 -16.994  18.425  0.00  0.00     0.095 A 
ATOM     25  C   LIG d   1      23.514 -16.873  19.370  0.00  0.00     0.031 A 
ATOM     26  C   LIG d   1      24.307 -17.987  19.716  0.00  0.00     0.059 A 
ATOM     27  C   LIG d   1      24.059 -19.236  19.114  0.00  0.00     0.011 A 
ATOM     28  C   LIG d   1      23.025 -19.367  18.171  0.00  0.00     0.002 A 
ATOM     29  C   LIG d   1      22.233 -18.255  17.834  0.00  0.00     0.020 A 
ATOM     30 CL   LIG d   1      25.550 -17.822  20.853  0.00  0.00    -0.082 c 
ENDROOT
TORSDOF 0
ENDMDL
