MODEL 1
REMARK NAME *****_MODEL1
REMARK  4 active torsions:
REMARK  status: ('A' for Active; 'I' for Inactive)
REMARK    1  A    between atoms: O_2  and  C_3 
REMARK    2  A    between atoms: C_7  and  N_8 
REMARK       I    between atoms: N_8  and  C_9 
REMARK       I    between atoms: C_9  and  N_11 
REMARK    3  A    between atoms: N_14  and  C_15 
REMARK    4  A    between atoms: C_17  and  C_18 
ROOT
ATOM      1  N   LIG d   1      16.565   6.224  33.124  0.00  0.00    -0.193 NA
ATOM      2  C   LIG d   1      16.723   7.620  33.405  0.00  0.00     0.346 C 
ATOM      3  O   LIG d   1      16.606   8.024  34.600  0.00  0.00    -0.245 OA
ATOM      4  N   LIG d   1      17.637   8.353  32.581  0.00  0.00    -0.297 N 
ATOM      5  C   LIG d   1      19.052   8.153  32.880  0.00  0.00     0.130 C 
ATOM      6  C   LIG d   1      19.847   8.591  31.675  0.00  0.00     0.128 C 
ATOM      7  N   LIG d   1      19.406   7.867  30.485  0.00  0.00    -0.324 N 
ATOM      8  C   LIG d   1      17.978   7.935  30.190  0.00  0.00     0.128 C 
ATOM      9  C   LIG d   1      17.216   8.708  31.229  0.00  0.00     0.130 C 
ENDROOT
BRANCH   1  10
ATOM     10  C   LIG d   1      15.702   5.475  33.987  0.00  0.00     0.088 C 
ATOM     11  C   LIG d   1      16.292   5.005  35.153  0.00  0.00     0.019 C 
ATOM     12  C   LIG d   1      15.582   4.820  36.319  0.00  0.00     0.004 C 
ATOM     13  C   LIG d   1      14.256   5.185  36.343  0.00  0.00     0.024 C 
ATOM     14  C   LIG d   1      13.601   5.553  35.173  0.00  0.00     0.096 C 
ATOM     15  C   LIG d   1      14.385   5.904  34.086  0.00  0.00     0.043 C 
BRANCH  14  16
ATOM     16  O   LIG d   1      12.378   6.199  35.348  0.00  0.00    -0.328 OA
ATOM     17  C   LIG d   1      12.110   7.355  34.558  0.00  0.00     0.181 C 
ENDBRANCH  14  16
ENDBRANCH   1  10
BRANCH   7  18
ATOM     18  C   LIG d   1      20.251   7.999  29.335  0.00  0.00     0.191 C 
ATOM     19  N   LIG d   1      21.047   7.064  28.761  0.00  0.00    -0.202 NA
ATOM     20  C   LIG d   1      22.136   7.615  28.215  0.00  0.00     0.172 C 
ATOM     21  N   LIG d   1      21.810   8.646  27.395  0.00  0.00    -0.187 NA
ATOM     22  S   LIG d   1      20.475   9.287  28.224  0.00  0.00     0.052 SA
BRANCH  20  23
ATOM     23  C   LIG d   1      23.429   6.926  28.080  0.00  0.00     0.036 C 
ATOM     24  C   LIG d   1      23.471   5.545  28.225  0.00  0.00     0.003 C 
ATOM     25  C   LIG d   1      24.727   4.968  28.363  0.00  0.00     0.000 C 
ATOM     26  C   LIG d   1      25.843   5.703  28.704  0.00  0.00     0.000 C 
ATOM     27  C   LIG d   1      25.699   7.056  28.931  0.00  0.00     0.000 C 
ATOM     28  C   LIG d   1      24.525   7.645  28.543  0.00  0.00     0.003 C 
ENDBRANCH  20  23
ENDBRANCH   7  18
TORSDOF 4
ENDMDL
MODEL 2
REMARK NAME *****_MODEL2
REMARK  4 active torsions:
REMARK  status: ('A' for Active; 'I' for Inactive)
REMARK    1  A    between atoms: O_2  and  C_3 
REMARK    2  A    between atoms: C_7  and  N_8 
REMARK       I    between atoms: N_8  and  C_9 
REMARK       I    between atoms: C_9  and  N_11 
REMARK    3  A    between atoms: N_14  and  C_15 
REMARK    4  A    between atoms: C_17  and  C_18 
ROOT
ATOM      1  N   LIG d   1      16.731   6.236  33.147  0.00  0.00    -0.193 NA
ATOM      2  C   LIG d   1      16.664   7.659  33.304  0.00  0.00     0.346 C 
ATOM      3  O   LIG d   1      16.401   8.139  34.446  0.00  0.00    -0.245 OA
ATOM      4  N   LIG d   1      17.519   8.450  32.471  0.00  0.00    -0.297 N 
ATOM      5  C   LIG d   1      18.923   8.491  32.872  0.00  0.00     0.130 C 
ATOM      6  C   LIG d   1      19.732   8.941  31.682  0.00  0.00     0.128 C 
ATOM      7  N   LIG d   1      19.491   8.061  30.541  0.00  0.00    -0.324 N 
ATOM      8  C   LIG d   1      18.093   7.888  30.155  0.00  0.00     0.128 C 
ATOM      9  C   LIG d   1      17.153   8.621  31.069  0.00  0.00     0.130 C 
ENDROOT
BRANCH   1  10
ATOM     10  C   LIG d   1      15.925   5.440  34.023  0.00  0.00     0.088 C 
ATOM     11  C   LIG d   1      16.544   5.044  35.201  0.00  0.00     0.019 C 
ATOM     12  C   LIG d   1      15.845   4.829  36.368  0.00  0.00     0.004 C 
ATOM     13  C   LIG d   1      14.494   5.089  36.379  0.00  0.00     0.024 C 
ATOM     14  C   LIG d   1      13.818   5.380  35.200  0.00  0.00     0.096 C 
ATOM     15  C   LIG d   1      14.578   5.767  34.107  0.00  0.00     0.043 C 
BRANCH  14  16
ATOM     16  O   LIG d   1      12.547   5.932  35.356  0.00  0.00    -0.328 OA
ATOM     17  C   LIG d   1      12.222   7.095  34.598  0.00  0.00     0.181 C 
ENDBRANCH  14  16
ENDBRANCH   1  10
BRANCH   7  18
ATOM     18  C   LIG d   1      20.390   8.223  29.436  0.00  0.00     0.191 C 
ATOM     19  N   LIG d   1      21.138   7.280  28.813  0.00  0.00    -0.202 NA
ATOM     20  C   LIG d   1      22.286   7.788  28.354  0.00  0.00     0.172 C 
ATOM     21  N   LIG d   1      22.071   8.905  27.614  0.00  0.00    -0.187 NA
ATOM     22  S   LIG d   1      20.753   9.576  28.448  0.00  0.00     0.052 SA
BRANCH  20  23
ATOM     23  C   LIG d   1      23.529   7.016  28.207  0.00  0.00     0.036 C 
ATOM     24  C   LIG d   1      23.463   5.629  28.224  0.00  0.00     0.003 C 
ATOM     25  C   LIG d   1      24.665   4.945  28.357  0.00  0.00     0.000 C 
ATOM     26  C   LIG d   1      25.815   5.557  28.809  0.00  0.00     0.000 C 
ATOM     27  C   LIG d   1      25.761   6.892  29.155  0.00  0.00     0.000 C 
ATOM     28  C   LIG d   1      24.653   7.603  28.778  0.00  0.00     0.003 C 
ENDBRANCH  20  23
ENDBRANCH   7  18
TORSDOF 4
ENDMDL
MODEL 3
REMARK NAME *****_MODEL3
REMARK  4 active torsions:
REMARK  status: ('A' for Active; 'I' for Inactive)
REMARK    1  A    between atoms: O_2  and  C_3 
REMARK    2  A    between atoms: C_7  and  N_8 
REMARK       I    between atoms: N_8  and  C_9 
REMARK       I    between atoms: C_9  and  N_11 
REMARK    3  A    between atoms: N_14  and  C_15 
REMARK    4  A    between atoms: C_17  and  C_18 
ROOT
ATOM      1  N   LIG d   1      16.781   6.258  33.180  0.00  0.00    -0.193 NA
ATOM      2  C   LIG d   1      16.708   7.683  33.304  0.00  0.00     0.346 C 
ATOM      3  O   LIG d   1      16.467   8.190  34.440  0.00  0.00    -0.245 OA
ATOM      4  N   LIG d   1      17.541   8.459  32.434  0.00  0.00    -0.297 N 
ATOM      5  C   LIG d   1      18.952   8.519  32.804  0.00  0.00     0.130 C 
ATOM      6  C   LIG d   1      19.733   8.945  31.586  0.00  0.00     0.128 C 
ATOM      7  N   LIG d   1      19.473   8.036  30.472  0.00  0.00    -0.324 N 
ATOM      8  C   LIG d   1      18.068   7.845  30.120  0.00  0.00     0.128 C 
ATOM      9  C   LIG d   1      17.143   8.595  31.036  0.00  0.00     0.130 C 
ENDROOT
BRANCH   1  10
ATOM     10  C   LIG d   1      15.999   5.479  34.092  0.00  0.00     0.088 C 
ATOM     11  C   LIG d   1      16.617   5.184  35.300  0.00  0.00     0.019 C 
ATOM     12  C   LIG d   1      15.910   5.007  36.469  0.00  0.00     0.004 C 
ATOM     13  C   LIG d   1      14.548   5.202  36.445  0.00  0.00     0.024 C 
ATOM     14  C   LIG d   1      13.879   5.388  35.241  0.00  0.00     0.096 C 
ATOM     15  C   LIG d   1      14.637   5.745  34.138  0.00  0.00     0.043 C 
BRANCH  14  16
ATOM     16  O   LIG d   1      12.581   5.887  35.347  0.00  0.00    -0.328 OA
ATOM     17  C   LIG d   1      12.185   6.922  34.451  0.00  0.00     0.181 C 
ENDBRANCH  14  16
ENDBRANCH   1  10
BRANCH   7  18
ATOM     18  C   LIG d   1      20.348   8.176  29.345  0.00  0.00     0.191 C 
ATOM     19  N   LIG d   1      21.118   7.232  28.753  0.00  0.00    -0.202 NA
ATOM     20  C   LIG d   1      22.239   7.757  28.250  0.00  0.00     0.172 C 
ATOM     21  N   LIG d   1      21.973   8.830  27.462  0.00  0.00    -0.187 NA
ATOM     22  S   LIG d   1      20.646   9.494  28.288  0.00  0.00     0.052 SA
BRANCH  20  23
ATOM     23  C   LIG d   1      23.506   7.023  28.115  0.00  0.00     0.036 C 
ATOM     24  C   LIG d   1      23.496   5.640  28.243  0.00  0.00     0.003 C 
ATOM     25  C   LIG d   1      24.729   5.014  28.383  0.00  0.00     0.000 C 
ATOM     26  C   LIG d   1      25.869   5.702  28.742  0.00  0.00     0.000 C 
ATOM     27  C   LIG d   1      25.774   7.057  28.986  0.00  0.00     0.000 C 
ATOM     28  C   LIG d   1      24.625   7.694  28.597  0.00  0.00     0.003 C 
ENDBRANCH  20  23
ENDBRANCH   7  18
TORSDOF 4
ENDMDL
MODEL 4
REMARK NAME *****_MODEL4
REMARK  4 active torsions:
REMARK  status: ('A' for Active; 'I' for Inactive)
REMARK    1  A    between atoms: O_2  and  C_3 
REMARK    2  A    between atoms: C_7  and  N_8 
REMARK       I    between atoms: N_8  and  C_9 
REMARK       I    between atoms: C_9  and  N_11 
REMARK    3  A    between atoms: N_14  and  C_15 
REMARK    4  A    between atoms: C_17  and  C_18 
ROOT
ATOM      1  N   LIG d   1      16.134   6.549  32.873  0.00  0.00    -0.193 NA
ATOM      2  C   LIG d   1      16.779   7.670  33.489  0.00  0.00     0.346 C 
ATOM      3  O   LIG d   1      16.807   7.745  34.753  0.00  0.00    -0.245 OA
ATOM      4  N   LIG d   1      17.899   8.240  32.801  0.00  0.00    -0.297 N 
ATOM      5  C   LIG d   1      19.148   7.490  32.904  0.00  0.00     0.130 C 
ATOM      6  C   LIG d   1      20.053   7.940  31.785  0.00  0.00     0.128 C 
ATOM      7  N   LIG d   1      19.389   7.768  30.494  0.00  0.00    -0.324 N 
ATOM      8  C   LIG d   1      18.081   8.404  30.362  0.00  0.00     0.128 C 
ATOM      9  C   LIG d   1      17.640   9.075  31.631  0.00  0.00     0.130 C 
ENDROOT
BRANCH   1  10
ATOM     10  C   LIG d   1      15.056   5.937  33.590  0.00  0.00     0.088 C 
ATOM     11  C   LIG d   1      15.426   5.225  34.723  0.00  0.00     0.019 C 
ATOM     12  C   LIG d   1      14.599   5.092  35.816  0.00  0.00     0.004 C 
ATOM     13  C   LIG d   1      13.392   5.752  35.807  0.00  0.00     0.024 C 
ATOM     14  C   LIG d   1      12.936   6.381  34.655  0.00  0.00     0.096 C 
ATOM     15  C   LIG d   1      13.866   6.650  33.664  0.00  0.00     0.043 C 
BRANCH  14  16
ATOM     16  O   LIG d   1      11.880   7.274  34.836  0.00  0.00    -0.328 OA
ATOM     17  C   LIG d   1      10.886   7.354  33.817  0.00  0.00     0.181 C 
ENDBRANCH  14  16
ENDBRANCH   1  10
BRANCH   7  18
ATOM     18  C   LIG d   1      20.232   7.911  29.344  0.00  0.00     0.191 C 
ATOM     19  N   LIG d   1      21.007   6.975  28.744  0.00  0.00    -0.202 NA
ATOM     20  C   LIG d   1      22.104   7.517  28.207  0.00  0.00     0.172 C 
ATOM     21  N   LIG d   1      21.796   8.573  27.413  0.00  0.00    -0.187 NA
ATOM     22  S   LIG d   1      20.476   9.220  28.263  0.00  0.00     0.052 SA
BRANCH  20  23
ATOM     23  C   LIG d   1      23.382   6.806  28.049  0.00  0.00     0.036 C 
ATOM     24  C   LIG d   1      23.448   5.461  28.390  0.00  0.00     0.003 C 
ATOM     25  C   LIG d   1      24.715   4.901  28.489  0.00  0.00     0.000 C 
ATOM     26  C   LIG d   1      25.854   5.669  28.610  0.00  0.00     0.000 C 
ATOM     27  C   LIG d   1      25.724   7.043  28.650  0.00  0.00     0.000 C 
ATOM     28  C   LIG d   1      24.513   7.577  28.295  0.00  0.00     0.003 C 
ENDBRANCH  20  23
ENDBRANCH   7  18
TORSDOF 4
ENDMDL
MODEL 5
REMARK NAME *****_MODEL5
REMARK  4 active torsions:
REMARK  status: ('A' for Active; 'I' for Inactive)
REMARK    1  A    between atoms: O_2  and  C_3 
REMARK    2  A    between atoms: C_7  and  N_8 
REMARK       I    between atoms: N_8  and  C_9 
REMARK       I    between atoms: C_9  and  N_11 
REMARK    3  A    between atoms: N_14  and  C_15 
REMARK    4  A    between atoms: C_17  and  C_18 
ROOT
ATOM      1  N   LIG d   1      15.818   8.216  32.977  0.00  0.00    -0.193 NA
ATOM      2  C   LIG d   1      16.952   8.668  33.727  0.00  0.00     0.346 C 
ATOM      3  O   LIG d   1      17.000   8.432  34.971  0.00  0.00    -0.245 OA
ATOM      4  N   LIG d   1      18.212   8.709  33.047  0.00  0.00    -0.297 N 
ATOM      5  C   LIG d   1      18.871   7.419  32.865  0.00  0.00     0.130 C 
ATOM      6  C   LIG d   1      19.891   7.570  31.765  0.00  0.00     0.128 C 
ATOM      7  N   LIG d   1      19.254   8.062  30.545  0.00  0.00    -0.324 N 
ATOM      8  C   LIG d   1      18.484   9.295  30.682  0.00  0.00     0.128 C 
ATOM      9  C   LIG d   1      18.450   9.794  32.099  0.00  0.00     0.130 C 
ENDROOT
BRANCH   1  10
ATOM     10  C   LIG d   1      14.571   8.111  33.672  0.00  0.00     0.088 C 
ATOM     11  C   LIG d   1      13.466   8.593  32.983  0.00  0.00     0.019 C 
ATOM     12  C   LIG d   1      12.201   8.079  33.162  0.00  0.00     0.004 C 
ATOM     13  C   LIG d   1      12.045   7.001  34.003  0.00  0.00     0.024 C 
ATOM     14  C   LIG d   1      13.100   6.561  34.794  0.00  0.00     0.096 C 
ATOM     15  C   LIG d   1      14.376   6.974  34.444  0.00  0.00     0.043 C 
BRANCH  14  16
ATOM     16  O   LIG d   1      12.941   5.295  35.356  0.00  0.00    -0.328 OA
ATOM     17  C   LIG d   1      13.962   4.814  36.227  0.00  0.00     0.181 C 
ENDBRANCH  14  16
ENDBRANCH   1  10
BRANCH   7  18
ATOM     18  C   LIG d   1      20.059   7.999  29.361  0.00  0.00     0.191 C 
ATOM     19  N   LIG d   1      20.871   6.997  28.946  0.00  0.00    -0.202 NA
ATOM     20  C   LIG d   1      21.922   7.467  28.266  0.00  0.00     0.172 C 
ATOM     21  N   LIG d   1      21.534   8.312  27.278  0.00  0.00    -0.187 NA
ATOM     22  S   LIG d   1      20.200   9.058  28.019  0.00  0.00     0.052 SA
BRANCH  20  23
ATOM     23  C   LIG d   1      23.235   6.806  28.216  0.00  0.00     0.036 C 
ATOM     24  C   LIG d   1      23.288   5.418  28.224  0.00  0.00     0.003 C 
ATOM     25  C   LIG d   1      24.529   4.839  28.452  0.00  0.00     0.000 C 
ATOM     26  C   LIG d   1      25.583   5.543  28.997  0.00  0.00     0.000 C 
ATOM     27  C   LIG d   1      25.387   6.864  29.342  0.00  0.00     0.000 C 
ATOM     28  C   LIG d   1      24.254   7.481  28.878  0.00  0.00     0.003 C 
ENDBRANCH  20  23
ENDBRANCH   7  18
TORSDOF 4
ENDMDL
MODEL 6
REMARK NAME *****_MODEL6
REMARK  4 active torsions:
REMARK  status: ('A' for Active; 'I' for Inactive)
REMARK    1  A    between atoms: O_2  and  C_3 
REMARK    2  A    between atoms: C_7  and  N_8 
REMARK       I    between atoms: N_8  and  C_9 
REMARK       I    between atoms: C_9  and  N_11 
REMARK    3  A    between atoms: N_14  and  C_15 
REMARK    4  A    between atoms: C_17  and  C_18 
ROOT
ATOM      1  N   LIG d   1      15.804   8.220  32.960  0.00  0.00    -0.193 NA
ATOM      2  C   LIG d   1      16.938   8.626  33.737  0.00  0.00     0.346 C 
ATOM      3  O   LIG d   1      16.971   8.342  34.971  0.00  0.00    -0.245 OA
ATOM      4  N   LIG d   1      18.204   8.675  33.070  0.00  0.00    -0.297 N 
ATOM      5  C   LIG d   1      18.846   7.383  32.844  0.00  0.00     0.130 C 
ATOM      6  C   LIG d   1      19.878   7.561  31.759  0.00  0.00     0.128 C 
ATOM      7  N   LIG d   1      19.260   8.109  30.554  0.00  0.00    -0.324 N 
ATOM      8  C   LIG d   1      18.506   9.348  30.732  0.00  0.00     0.128 C 
ATOM      9  C   LIG d   1      18.467   9.792  32.167  0.00  0.00     0.130 C 
ENDROOT
BRANCH   1  10
ATOM     10  C   LIG d   1      14.549   8.107  33.640  0.00  0.00     0.088 C 
ATOM     11  C   LIG d   1      13.447   8.559  32.927  0.00  0.00     0.019 C 
ATOM     12  C   LIG d   1      12.187   8.027  33.099  0.00  0.00     0.004 C 
ATOM     13  C   LIG d   1      12.037   6.962  33.956  0.00  0.00     0.024 C 
ATOM     14  C   LIG d   1      13.088   6.552  34.768  0.00  0.00     0.096 C 
ATOM     15  C   LIG d   1      14.361   6.980  34.429  0.00  0.00     0.043 C 
BRANCH  14  16
ATOM     16  O   LIG d   1      12.941   5.294  35.350  0.00  0.00    -0.328 OA
ATOM     17  C   LIG d   1      13.994   4.812  36.182  0.00  0.00     0.181 C 
ENDBRANCH  14  16
ENDBRANCH   1  10
BRANCH   7  18
ATOM     18  C   LIG d   1      20.075   8.080  29.375  0.00  0.00     0.191 C 
ATOM     19  N   LIG d   1      20.848   7.070  28.909  0.00  0.00    -0.202 NA
ATOM     20  C   LIG d   1      21.925   7.532  28.267  0.00  0.00     0.172 C 
ATOM     21  N   LIG d   1      21.585   8.449  27.327  0.00  0.00    -0.187 NA
ATOM     22  S   LIG d   1      20.277   9.208  28.099  0.00  0.00     0.052 SA
BRANCH  20  23
ATOM     23  C   LIG d   1      23.209   6.818  28.191  0.00  0.00     0.036 C 
ATOM     24  C   LIG d   1      23.207   5.430  28.222  0.00  0.00     0.003 C 
ATOM     25  C   LIG d   1      24.431   4.805  28.423  0.00  0.00     0.000 C 
ATOM     26  C   LIG d   1      25.528   5.475  28.923  0.00  0.00     0.000 C 
ATOM     27  C   LIG d   1      25.394   6.809  29.251  0.00  0.00     0.000 C 
ATOM     28  C   LIG d   1      24.274   7.463  28.810  0.00  0.00     0.003 C 
ENDBRANCH  20  23
ENDBRANCH   7  18
TORSDOF 4
ENDMDL
MODEL 7
REMARK NAME *****_MODEL7
REMARK  4 active torsions:
REMARK  status: ('A' for Active; 'I' for Inactive)
REMARK    1  A    between atoms: O_2  and  C_3 
REMARK    2  A    between atoms: C_7  and  N_8 
REMARK       I    between atoms: N_8  and  C_9 
REMARK       I    between atoms: C_9  and  N_11 
REMARK    3  A    between atoms: N_14  and  C_15 
REMARK    4  A    between atoms: C_17  and  C_18 
ROOT
ATOM      1  N   LIG d   1      23.552   7.811  29.788  0.00  0.00    -0.193 NA
ATOM      2  C   LIG d   1      22.901   8.339  28.626  0.00  0.00     0.346 C 
ATOM      3  O   LIG d   1      23.359   8.051  27.481  0.00  0.00    -0.245 OA
ATOM      4  N   LIG d   1      21.485   8.539  28.704  0.00  0.00    -0.297 N 
ATOM      5  C   LIG d   1      20.672   7.332  28.586  0.00  0.00     0.130 C 
ATOM      6  C   LIG d   1      19.306   7.636  29.147  0.00  0.00     0.128 C 
ATOM      7  N   LIG d   1      19.416   8.118  30.522  0.00  0.00    -0.324 N 
ATOM      8  C   LIG d   1      20.304   9.260  30.728  0.00  0.00     0.128 C 
ATOM      9  C   LIG d   1      20.990   9.685  29.461  0.00  0.00     0.130 C 
ENDROOT
BRANCH   1  10
ATOM     10  C   LIG d   1      24.957   7.548  29.691  0.00  0.00     0.088 C 
ATOM     11  C   LIG d   1      25.297   6.390  29.006  0.00  0.00     0.019 C 
ATOM     12  C   LIG d   1      26.476   6.264  28.305  0.00  0.00     0.004 C 
ATOM     13  C   LIG d   1      27.309   7.356  28.225  0.00  0.00     0.024 C 
ATOM     14  C   LIG d   1      27.062   8.493  28.984  0.00  0.00     0.096 C 
ATOM     15  C   LIG d   1      25.790   8.645  29.512  0.00  0.00     0.043 C 
BRANCH  14  16
ATOM     16  O   LIG d   1      27.763   9.636  28.600  0.00  0.00    -0.328 OA
ATOM     17  C   LIG d   1      27.609  10.815  29.386  0.00  0.00     0.181 C 
ENDBRANCH  14  16
ENDBRANCH   1  10
BRANCH   7  18
ATOM     18  C   LIG d   1      18.184   8.193  31.250  0.00  0.00     0.191 C 
ATOM     19  N   LIG d   1      17.985   8.076  32.586  0.00  0.00    -0.202 NA
ATOM     20  C   LIG d   1      16.798   7.526  32.859  0.00  0.00     0.172 C 
ATOM     21  N   LIG d   1      15.795   8.162  32.202  0.00  0.00    -0.187 NA
ATOM     22  S   LIG d   1      16.585   8.564  30.754  0.00  0.00     0.052 SA
BRANCH  20  23
ATOM     23  C   LIG d   1      16.518   6.721  34.058  0.00  0.00     0.036 C 
ATOM     24  C   LIG d   1      17.385   5.687  34.388  0.00  0.00     0.003 C 
ATOM     25  C   LIG d   1      16.950   4.787  35.352  0.00  0.00     0.000 C 
ATOM     26  C   LIG d   1      15.623   4.676  35.711  0.00  0.00     0.000 C 
ATOM     27  C   LIG d   1      14.697   5.479  35.077  0.00  0.00     0.000 C 
ATOM     28  C   LIG d   1      15.169   6.525  34.328  0.00  0.00     0.003 C 
ENDBRANCH  20  23
ENDBRANCH   7  18
TORSDOF 4
ENDMDL
MODEL 8
REMARK NAME *****_MODEL8
REMARK  4 active torsions:
REMARK  status: ('A' for Active; 'I' for Inactive)
REMARK    1  A    between atoms: O_2  and  C_3 
REMARK    2  A    between atoms: C_7  and  N_8 
REMARK       I    between atoms: N_8  and  C_9 
REMARK       I    between atoms: C_9  and  N_11 
REMARK    3  A    between atoms: N_14  and  C_15 
REMARK    4  A    between atoms: C_17  and  C_18 
ROOT
ATOM      1  N   LIG d   1      10.261  12.914  32.776  0.00  0.00    -0.193 NA
ATOM      2  C   LIG d   1      11.093  12.511  31.681  0.00  0.00     0.346 C 
ATOM      3  O   LIG d   1      11.720  13.397  31.027  0.00  0.00    -0.245 OA
ATOM      4  N   LIG d   1      11.732  11.234  31.781  0.00  0.00    -0.297 N 
ATOM      5  C   LIG d   1      12.898  11.181  32.659  0.00  0.00     0.130 C 
ATOM      6  C   LIG d   1      13.146   9.737  33.014  0.00  0.00     0.128 C 
ATOM      7  N   LIG d   1      11.951   9.148  33.616  0.00  0.00    -0.324 N 
ATOM      8  C   LIG d   1      10.722   9.264  32.835  0.00  0.00     0.128 C 
ATOM      9  C   LIG d   1      10.924  10.038  31.563  0.00  0.00     0.130 C 
ENDROOT
BRANCH   1  10
ATOM     10  C   LIG d   1       9.673  14.218  32.709  0.00  0.00     0.088 C 
ATOM     11  C   LIG d   1       9.319  14.643  31.436  0.00  0.00     0.019 C 
ATOM     12  C   LIG d   1       8.269  15.505  31.209  0.00  0.00     0.004 C 
ATOM     13  C   LIG d   1       7.502  15.899  32.282  0.00  0.00     0.024 C 
ATOM     14  C   LIG d   1       7.887  15.587  33.580  0.00  0.00     0.096 C 
ATOM     15  C   LIG d   1       8.821  14.577  33.745  0.00  0.00     0.043 C 
BRANCH  14  16
ATOM     16  O   LIG d   1       6.901  15.747  34.554  0.00  0.00    -0.328 OA
ATOM     17  C   LIG d   1       5.724  16.472  34.204  0.00  0.00     0.181 C 
ENDBRANCH  14  16
ENDBRANCH   1  10
BRANCH   7  18
ATOM     18  C   LIG d   1      12.138   7.868  34.232  0.00  0.00     0.191 C 
ATOM     19  N   LIG d   1      13.213   7.412  34.919  0.00  0.00    -0.202 NA
ATOM     20  C   LIG d   1      13.372   6.094  34.763  0.00  0.00     0.172 C 
ATOM     21  N   LIG d   1      12.222   5.423  35.023  0.00  0.00    -0.187 NA
ATOM     22  S   LIG d   1      11.080   6.534  34.436  0.00  0.00     0.052 SA
BRANCH  20  23
ATOM     23  C   LIG d   1      14.672   5.407  34.820  0.00  0.00     0.036 C 
ATOM     24  C   LIG d   1      15.189   5.051  36.059  0.00  0.00     0.003 C 
ATOM     25  C   LIG d   1      16.521   4.660  36.094  0.00  0.00     0.000 C 
ATOM     26  C   LIG d   1      17.399   4.939  35.068  0.00  0.00     0.000 C 
ATOM     27  C   LIG d   1      16.938   5.649  33.978  0.00  0.00     0.000 C 
ATOM     28  C   LIG d   1      15.582   5.798  33.844  0.00  0.00     0.003 C 
ENDBRANCH  20  23
ENDBRANCH   7  18
TORSDOF 4
ENDMDL
MODEL 9
REMARK NAME *****_MODEL9
REMARK  4 active torsions:
REMARK  status: ('A' for Active; 'I' for Inactive)
REMARK    1  A    between atoms: O_2  and  C_3 
REMARK    2  A    between atoms: C_7  and  N_8 
REMARK       I    between atoms: N_8  and  C_9 
REMARK       I    between atoms: C_9  and  N_11 
REMARK    3  A    between atoms: N_14  and  C_15 
REMARK    4  A    between atoms: C_17  and  C_18 
ROOT
ATOM      1  N   LIG d   1      17.287   8.370  32.405  0.00  0.00    -0.193 NA
ATOM      2  C   LIG d   1      17.762   9.722  32.435  0.00  0.00     0.346 C 
ATOM      3  O   LIG d   1      17.614  10.402  33.493  0.00  0.00    -0.245 OA
ATOM      4  N   LIG d   1      18.921  10.026  31.650  0.00  0.00    -0.297 N 
ATOM      5  C   LIG d   1      20.194   9.588  32.214  0.00  0.00     0.130 C 
ATOM      6  C   LIG d   1      21.208   9.551  31.098  0.00  0.00     0.128 C 
ATOM      7  N   LIG d   1      20.739   8.693  30.012  0.00  0.00    -0.324 N 
ATOM      8  C   LIG d   1      19.418   9.011  29.475  0.00  0.00     0.128 C 
ATOM      9  C   LIG d   1      18.763  10.149  30.204  0.00  0.00     0.130 C 
ENDROOT
BRANCH   1  10
ATOM     10  C   LIG d   1      16.169   8.049  33.239  0.00  0.00     0.088 C 
ATOM     11  C   LIG d   1      14.922   8.296  32.680  0.00  0.00     0.019 C 
ATOM     12  C   LIG d   1      13.806   7.557  33.005  0.00  0.00     0.004 C 
ATOM     13  C   LIG d   1      13.954   6.490  33.861  0.00  0.00     0.024 C 
ATOM     14  C   LIG d   1      15.155   6.277  34.526  0.00  0.00     0.096 C 
ATOM     15  C   LIG d   1      16.282   6.914  34.031  0.00  0.00     0.043 C 
BRANCH  14  16
ATOM     16  O   LIG d   1      15.304   5.018  35.107  0.00  0.00    -0.328 OA
ATOM     17  C   LIG d   1      14.773   4.814  36.414  0.00  0.00     0.181 C 
ENDBRANCH  14  16
ENDBRANCH   1  10
BRANCH   7  18
ATOM     18  C   LIG d   1      21.717   8.369  29.016  0.00  0.00     0.191 C 
ATOM     19  N   LIG d   1      22.696   7.434  29.069  0.00  0.00    -0.202 NA
ATOM     20  C   LIG d   1      23.775   7.814  28.377  0.00  0.00     0.172 C 
ATOM     21  N   LIG d   1      23.445   8.201  27.119  0.00  0.00    -0.187 NA
ATOM     22  S   LIG d   1      21.935   8.922  27.407  0.00  0.00     0.052 SA
BRANCH  20  23
ATOM     23  C   LIG d   1      25.149   7.400  28.700  0.00  0.00     0.036 C 
ATOM     24  C   LIG d   1      25.803   6.522  27.846  0.00  0.00     0.003 C 
ATOM     25  C   LIG d   1      26.977   5.946  28.316  0.00  0.00     0.000 C 
ATOM     26  C   LIG d   1      27.307   5.934  29.655  0.00  0.00     0.000 C 
ATOM     27  C   LIG d   1      26.430   6.500  30.558  0.00  0.00     0.000 C 
ATOM     28  C   LIG d   1      25.419   7.279  30.059  0.00  0.00     0.003 C 
ENDBRANCH  20  23
ENDBRANCH   7  18
TORSDOF 4
ENDMDL
MODEL 10
REMARK NAME *****_MODEL10
REMARK  4 active torsions:
REMARK  status: ('A' for Active; 'I' for Inactive)
REMARK    1  A    between atoms: O_2  and  C_3 
REMARK    2  A    between atoms: C_7  and  N_8 
REMARK       I    between atoms: N_8  and  C_9 
REMARK       I    between atoms: C_9  and  N_11 
REMARK    3  A    between atoms: N_14  and  C_15 
REMARK    4  A    between atoms: C_17  and  C_18 
ROOT
ATOM      1  N   LIG d   1      22.906   8.189  30.565  0.00  0.00    -0.193 NA
ATOM      2  C   LIG d   1      21.952   9.220  30.848  0.00  0.00     0.346 C 
ATOM      3  O   LIG d   1      21.785  10.152  30.007  0.00  0.00    -0.245 OA
ATOM      4  N   LIG d   1      20.798   8.851  31.613  0.00  0.00    -0.297 N 
ATOM      5  C   LIG d   1      19.765   8.124  30.881  0.00  0.00     0.130 C 
ATOM      6  C   LIG d   1      18.889   7.423  31.889  0.00  0.00     0.128 C 
ATOM      7  N   LIG d   1      19.694   6.559  32.749  0.00  0.00    -0.324 N 
ATOM      8  C   LIG d   1      20.816   7.203  33.428  0.00  0.00     0.128 C 
ATOM      9  C   LIG d   1      20.957   8.651  33.050  0.00  0.00     0.130 C 
ENDROOT
BRANCH   1  10
ATOM     10  C   LIG d   1      24.026   8.540  29.746  0.00  0.00     0.088 C 
ATOM     11  C   LIG d   1      24.856   9.525  30.266  0.00  0.00     0.019 C 
ATOM     12  C   LIG d   1      26.204   9.579  29.988  0.00  0.00     0.004 C 
ATOM     13  C   LIG d   1      26.756   8.575  29.226  0.00  0.00     0.024 C 
ATOM     14  C   LIG d   1      25.947   7.637  28.597  0.00  0.00     0.096 C 
ATOM     15  C   LIG d   1      24.645   7.508  29.052  0.00  0.00     0.043 C 
BRANCH  14  16
ATOM     16  O   LIG d   1      26.602   6.500  28.125  0.00  0.00    -0.328 OA
ATOM     17  C   LIG d   1      27.190   5.618  29.079  0.00  0.00     0.181 C 
ENDBRANCH  14  16
ENDBRANCH   1  10
BRANCH   7  18
ATOM     18  C   LIG d   1      18.956   5.646  33.570  0.00  0.00     0.191 C 
ATOM     19  N   LIG d   1      17.691   5.191  33.398  0.00  0.00    -0.202 NA
ATOM     20  C   LIG d   1      17.092   4.953  34.569  0.00  0.00     0.172 C 
ATOM     21  N   LIG d   1      17.859   4.170  35.368  0.00  0.00    -0.187 NA
ATOM     22  S   LIG d   1      19.407   4.726  34.946  0.00  0.00     0.052 SA
BRANCH  20  23
ATOM     23  C   LIG d   1      15.641   5.058  34.790  0.00  0.00     0.036 C 
ATOM     24  C   LIG d   1      14.910   5.960  34.027  0.00  0.00     0.003 C 
ATOM     25  C   LIG d   1      13.612   6.227  34.444  0.00  0.00     0.000 C 
ATOM     26  C   LIG d   1      13.169   5.925  35.715  0.00  0.00     0.000 C 
ATOM     27  C   LIG d   1      14.055   5.354  36.605  0.00  0.00     0.000 C 
ATOM     28  C   LIG d   1      15.234   4.868  36.105  0.00  0.00     0.003 C 
ENDBRANCH  20  23
ENDBRANCH   7  18
TORSDOF 4
ENDMDL
