MODEL 1
REMARK NAME *****_MODEL1
REMARK  6 active torsions:
REMARK  status: ('A' for Active; 'I' for Inactive)
REMARK    1  A    between atoms: C_2  and  C_4 
REMARK       I    between atoms: C_4  and  N_6 
REMARK    2  A    between atoms: N_6  and  C_7 
REMARK    3  A    between atoms: C_10  and  C_12 
REMARK    4  A    between atoms: C_13  and  C_18 
REMARK    5  A    between atoms: C_19  and  C_26 
REMARK    6  A    between atoms: C_21  and  O_24 
ROOT
ATOM      1  C   LIG d   1      16.621   5.296  34.519  0.00  0.00     0.011 A 
ATOM      2  C   LIG d   1      17.456   6.220  33.822  0.00  0.00     0.020 A 
ATOM      3  C   LIG d   1      18.790   5.828  33.560  0.00  0.00     0.099 A 
ATOM      4  N   LIG d   1      19.270   4.650  34.027  0.00  0.00    -0.242 NA
ATOM      5  C   LIG d   1      18.509   3.778  34.731  0.00  0.00     0.099 A 
ATOM      6  C   LIG d   1      17.157   4.068  34.970  0.00  0.00     0.021 A 
ENDROOT
BRANCH   2   7
ATOM      7  C   LIG d   1      17.005   7.503  33.374  0.00  0.00     0.005 A 
ATOM      8  C   LIG d   1      17.306   8.728  34.055  0.00  0.00     0.073 A 
ATOM      9  C   LIG d   1      16.786   9.936  33.520  0.00  0.00     0.028 A 
ATOM     10  C   LIG d   1      15.933   9.947  32.403  0.00  0.00     0.094 A 
ATOM     11  C   LIG d   1      15.657   8.743  31.738  0.00  0.00     0.024 A 
ATOM     12  C   LIG d   1      16.197   7.538  32.211  0.00  0.00     0.002 A 
BRANCH   8  13
ATOM     13  C   LIG d   1      18.138   8.811  35.301  0.00  0.00     0.419 C 
ATOM     14  F   LIG d   1      19.464   8.936  34.962  0.00  0.00    -0.166 F 
ATOM     15  F   LIG d   1      17.986   7.730  36.135  0.00  0.00    -0.166 F 
ATOM     16  F   LIG d   1      17.817   9.883  36.102  0.00  0.00    -0.166 F 
ENDBRANCH   8  13
BRANCH  10  17
ATOM     17  O   LIG d   1      15.394  11.125  31.957  0.00  0.00    -0.328 OA
ATOM     18  C   LIG d   1      13.965  11.057  31.795  0.00  0.00     0.181 C 
ENDBRANCH  10  17
ENDBRANCH   2   7
BRANCH   1  19
ATOM     19  C   LIG d   1      15.266   5.572  34.795  0.00  0.00     0.052 A 
ATOM     20  C   LIG d   1      14.591   5.391  36.007  0.00  0.00     0.108 A 
ATOM     21  N   LIG d   1      13.328   5.885  36.079  0.00  0.00    -0.219 NA
ATOM     22  C   LIG d   1      12.847   6.483  34.965  0.00  0.00     0.197 A 
ATOM     23  S   LIG d   1      14.090   6.330  33.736  0.00  0.00    -0.047 SA
BRANCH  22  24
ATOM     24  N   LIG d   1      11.671   7.137  34.803  0.00  0.00    -0.186 NA
ATOM     25  C   LIG d   1      11.369   8.000  33.790  0.00  0.00     0.257 C 
ATOM     26  O   LIG d   1      12.223   8.332  32.933  0.00  0.00    -0.270 OA
BRANCH  25  27
ATOM     27  C   LIG d   1       9.996   8.550  33.661  0.00  0.00     0.081 C 
ATOM     28  C   LIG d   1       9.826   9.323  32.325  0.00  0.00     0.010 C 
ATOM     29  C   LIG d   1       8.927   7.441  33.854  0.00  0.00     0.010 C 
ENDBRANCH  25  27
ENDBRANCH  22  24
ENDBRANCH   1  19
TORSDOF 6
ENDMDL
MODEL 2
REMARK NAME *****_MODEL2
REMARK  6 active torsions:
REMARK  status: ('A' for Active; 'I' for Inactive)
REMARK    1  A    between atoms: C_2  and  C_4 
REMARK       I    between atoms: C_4  and  N_6 
REMARK    2  A    between atoms: N_6  and  C_7 
REMARK    3  A    between atoms: C_10  and  C_12 
REMARK    4  A    between atoms: C_13  and  C_18 
REMARK    5  A    between atoms: C_19  and  C_26 
REMARK    6  A    between atoms: C_21  and  O_24 
ROOT
ATOM      1  C   LIG d   1      18.439   6.156  34.127  0.00  0.00     0.011 A 
ATOM      2  C   LIG d   1      19.257   7.175  33.551  0.00  0.00     0.020 A 
ATOM      3  C   LIG d   1      20.659   7.034  33.671  0.00  0.00     0.099 A 
ATOM      4  N   LIG d   1      21.195   6.008  34.376  0.00  0.00    -0.242 NA
ATOM      5  C   LIG d   1      20.437   5.055  34.970  0.00  0.00     0.099 A 
ATOM      6  C   LIG d   1      19.041   5.091  34.836  0.00  0.00     0.021 A 
ENDROOT
BRANCH   2   7
ATOM      7  C   LIG d   1      18.726   8.311  32.860  0.00  0.00     0.005 A 
ATOM      8  C   LIG d   1      18.460   9.569  33.494  0.00  0.00     0.073 A 
ATOM      9  C   LIG d   1      17.918  10.615  32.703  0.00  0.00     0.028 A 
ATOM     10  C   LIG d   1      17.569  10.423  31.355  0.00  0.00     0.094 A 
ATOM     11  C   LIG d   1      17.848   9.192  30.743  0.00  0.00     0.024 A 
ATOM     12  C   LIG d   1      18.431   8.153  31.483  0.00  0.00     0.002 A 
BRANCH   8  13
ATOM     13  C   LIG d   1      18.719   9.846  34.946  0.00  0.00     0.419 C 
ATOM     14  F   LIG d   1      17.883   9.076  35.718  0.00  0.00    -0.166 F 
ATOM     15  F   LIG d   1      18.561  11.167  35.289  0.00  0.00    -0.166 F 
ATOM     16  F   LIG d   1      20.009   9.565  35.334  0.00  0.00    -0.166 F 
ENDBRANCH   8  13
BRANCH  10  17
ATOM     17  O   LIG d   1      16.983  11.435  30.642  0.00  0.00    -0.328 OA
ATOM     18  C   LIG d   1      15.551  11.301  30.559  0.00  0.00     0.181 C 
ENDBRANCH  10  17
ENDBRANCH   2   7
BRANCH   1  19
ATOM     19  C   LIG d   1      17.033   6.181  34.030  0.00  0.00     0.052 A 
ATOM     20  C   LIG d   1      16.124   5.294  34.618  0.00  0.00     0.108 A 
ATOM     21  N   LIG d   1      14.809   5.618  34.520  0.00  0.00    -0.219 NA
ATOM     22  C   LIG d   1      14.513   6.753  33.846  0.00  0.00     0.197 A 
ATOM     23  S   LIG d   1      16.035   7.395  33.251  0.00  0.00    -0.047 SA
BRANCH  22  24
ATOM     24  N   LIG d   1      13.305   7.347  33.687  0.00  0.00    -0.186 NA
ATOM     25  C   LIG d   1      12.182   7.083  34.417  0.00  0.00     0.257 C 
ATOM     26  O   LIG d   1      12.158   6.172  35.279  0.00  0.00    -0.270 OA
BRANCH  25  27
ATOM     27  C   LIG d   1      10.956   7.898  34.223  0.00  0.00     0.081 C 
ATOM     28  C   LIG d   1      11.274   9.210  33.456  0.00  0.00     0.010 C 
ATOM     29  C   LIG d   1       9.831   7.067  33.551  0.00  0.00     0.010 C 
ENDBRANCH  25  27
ENDBRANCH  22  24
ENDBRANCH   1  19
TORSDOF 6
ENDMDL
MODEL 3
REMARK NAME *****_MODEL3
REMARK  6 active torsions:
REMARK  status: ('A' for Active; 'I' for Inactive)
REMARK    1  A    between atoms: C_2  and  C_4 
REMARK       I    between atoms: C_4  and  N_6 
REMARK    2  A    between atoms: N_6  and  C_7 
REMARK    3  A    between atoms: C_10  and  C_12 
REMARK    4  A    between atoms: C_13  and  C_18 
REMARK    5  A    between atoms: C_19  and  C_26 
REMARK    6  A    between atoms: C_21  and  O_24 
ROOT
ATOM      1  C   LIG d   1      18.455   9.351  30.943  0.00  0.00     0.011 A 
ATOM      2  C   LIG d   1      17.986   9.211  32.285  0.00  0.00     0.020 A 
ATOM      3  C   LIG d   1      16.739   9.798  32.607  0.00  0.00     0.099 A 
ATOM      4  N   LIG d   1      16.061  10.530  31.690  0.00  0.00    -0.242 NA
ATOM      5  C   LIG d   1      16.509  10.715  30.425  0.00  0.00     0.099 A 
ATOM      6  C   LIG d   1      17.704  10.106  30.013  0.00  0.00     0.021 A 
ENDROOT
BRANCH   2   7
ATOM      7  C   LIG d   1      18.708   8.505  33.300  0.00  0.00     0.005 A 
ATOM      8  C   LIG d   1      19.335   9.149  34.416  0.00  0.00     0.073 A 
ATOM      9  C   LIG d   1      20.037   8.339  35.347  0.00  0.00     0.028 A 
ATOM     10  C   LIG d   1      20.193   6.955  35.159  0.00  0.00     0.094 A 
ATOM     11  C   LIG d   1      19.563   6.335  34.070  0.00  0.00     0.024 A 
ATOM     12  C   LIG d   1      18.819   7.099  33.158  0.00  0.00     0.002 A 
BRANCH   8  13
ATOM     13  C   LIG d   1      19.296  10.629  34.660  0.00  0.00     0.419 C 
ATOM     14  F   LIG d   1      19.779  11.290  33.556  0.00  0.00    -0.166 F 
ATOM     15  F   LIG d   1      20.007  11.022  35.768  0.00  0.00    -0.166 F 
ATOM     16  F   LIG d   1      18.030  11.109  34.904  0.00  0.00    -0.166 F 
ENDBRANCH   8  13
BRANCH  10  17
ATOM     17  O   LIG d   1      20.936   6.217  36.042  0.00  0.00    -0.328 OA
ATOM     18  C   LIG d   1      20.979   4.819  35.701  0.00  0.00     0.181 C 
ENDBRANCH  10  17
ENDBRANCH   2   7
BRANCH   1  19
ATOM     19  C   LIG d   1      19.664   8.772  30.509  0.00  0.00     0.052 A 
ATOM     20  C   LIG d   1      19.862   7.955  29.390  0.00  0.00     0.108 A 
ATOM     21  N   LIG d   1      21.149   7.653  29.079  0.00  0.00    -0.219 NA
ATOM     22  C   LIG d   1      22.104   8.155  29.895  0.00  0.00     0.197 A 
ATOM     23  S   LIG d   1      21.268   9.014  31.177  0.00  0.00    -0.047 SA
BRANCH  22  24
ATOM     24  N   LIG d   1      23.451   8.086  29.757  0.00  0.00    -0.186 NA
ATOM     25  C   LIG d   1      24.138   8.146  28.579  0.00  0.00     0.257 C 
ATOM     26  O   LIG d   1      23.546   8.194  27.474  0.00  0.00    -0.270 OA
BRANCH  25  27
ATOM     27  C   LIG d   1      25.622   8.186  28.581  0.00  0.00     0.081 C 
ATOM     28  C   LIG d   1      26.158   8.968  29.810  0.00  0.00     0.010 C 
ATOM     29  C   LIG d   1      26.222   6.759  28.469  0.00  0.00     0.010 C 
ENDBRANCH  25  27
ENDBRANCH  22  24
ENDBRANCH   1  19
TORSDOF 6
ENDMDL
MODEL 4
REMARK NAME *****_MODEL4
REMARK  6 active torsions:
REMARK  status: ('A' for Active; 'I' for Inactive)
REMARK    1  A    between atoms: C_2  and  C_4 
REMARK       I    between atoms: C_4  and  N_6 
REMARK    2  A    between atoms: N_6  and  C_7 
REMARK    3  A    between atoms: C_10  and  C_12 
REMARK    4  A    between atoms: C_13  and  C_18 
REMARK    5  A    between atoms: C_19  and  C_26 
REMARK    6  A    between atoms: C_21  and  O_24 
ROOT
ATOM      1  C   LIG d   1       8.027   8.494  31.494  0.00  0.00     0.011 A 
ATOM      2  C   LIG d   1       7.731   9.836  31.103  0.00  0.00     0.020 A 
ATOM      3  C   LIG d   1       6.666  10.031  30.193  0.00  0.00     0.099 A 
ATOM      4  N   LIG d   1       6.009   8.974  29.656  0.00  0.00    -0.242 NA
ATOM      5  C   LIG d   1       6.304   7.691  29.977  0.00  0.00     0.099 A 
ATOM      6  C   LIG d   1       7.302   7.422  30.926  0.00  0.00     0.021 A 
ENDROOT
BRANCH   2   7
ATOM      7  C   LIG d   1       8.448  10.974  31.594  0.00  0.00     0.005 A 
ATOM      8  C   LIG d   1       7.918  11.881  32.568  0.00  0.00     0.073 A 
ATOM      9  C   LIG d   1       8.722  12.984  32.961  0.00  0.00     0.028 A 
ATOM     10  C   LIG d   1       9.970  13.243  32.369  0.00  0.00     0.094 A 
ATOM     11  C   LIG d   1      10.483  12.339  31.427  0.00  0.00     0.024 A 
ATOM     12  C   LIG d   1       9.736  11.211  31.053  0.00  0.00     0.002 A 
BRANCH   8  13
ATOM     13  C   LIG d   1       6.564  11.738  33.197  0.00  0.00     0.419 C 
ATOM     14  F   LIG d   1       6.482  10.528  33.843  0.00  0.00    -0.166 F 
ATOM     15  F   LIG d   1       5.528  11.841  32.300  0.00  0.00    -0.166 F 
ATOM     16  F   LIG d   1       6.285  12.717  34.123  0.00  0.00    -0.166 F 
ENDBRANCH   8  13
BRANCH  10  17
ATOM     17  O   LIG d   1      10.686  14.355  32.724  0.00  0.00    -0.328 OA
ATOM     18  C   LIG d   1      10.533  15.438  31.787  0.00  0.00     0.181 C 
ENDBRANCH  10  17
ENDBRANCH   2   7
BRANCH   1  19
ATOM     19  C   LIG d   1       9.042   8.193  32.426  0.00  0.00     0.052 A 
ATOM     20  C   LIG d   1       8.923   7.440  33.599  0.00  0.00     0.108 A 
ATOM     21  N   LIG d   1      10.077   7.145  34.250  0.00  0.00    -0.219 NA
ATOM     22  C   LIG d   1      11.219   7.625  33.709  0.00  0.00     0.197 A 
ATOM     23  S   LIG d   1      10.750   8.573  32.308  0.00  0.00    -0.047 SA
BRANCH  22  24
ATOM     24  N   LIG d   1      12.497   7.397  34.100  0.00  0.00    -0.186 NA
ATOM     25  C   LIG d   1      12.932   6.325  34.824  0.00  0.00     0.257 C 
ATOM     26  O   LIG d   1      12.135   5.467  35.272  0.00  0.00    -0.270 OA
BRANCH  25  27
ATOM     27  C   LIG d   1      14.383   6.134  35.075  0.00  0.00     0.081 C 
ATOM     28  C   LIG d   1      14.626   5.016  36.125  0.00  0.00     0.010 C 
ATOM     29  C   LIG d   1      15.154   5.891  33.751  0.00  0.00     0.010 C 
ENDBRANCH  25  27
ENDBRANCH  22  24
ENDBRANCH   1  19
TORSDOF 6
ENDMDL
MODEL 5
REMARK NAME *****_MODEL5
REMARK  6 active torsions:
REMARK  status: ('A' for Active; 'I' for Inactive)
REMARK    1  A    between atoms: C_2  and  C_4 
REMARK       I    between atoms: C_4  and  N_6 
REMARK    2  A    between atoms: N_6  and  C_7 
REMARK    3  A    between atoms: C_10  and  C_12 
REMARK    4  A    between atoms: C_13  and  C_18 
REMARK    5  A    between atoms: C_19  and  C_26 
REMARK    6  A    between atoms: C_21  and  O_24 
ROOT
ATOM      1  C   LIG d   1       7.897   8.470  31.325  0.00  0.00     0.011 A 
ATOM      2  C   LIG d   1       7.542   9.807  30.970  0.00  0.00     0.020 A 
ATOM      3  C   LIG d   1       6.563   9.977  29.962  0.00  0.00     0.099 A 
ATOM      4  N   LIG d   1       6.046   8.908  29.310  0.00  0.00    -0.242 NA
ATOM      5  C   LIG d   1       6.402   7.633  29.599  0.00  0.00     0.099 A 
ATOM      6  C   LIG d   1       7.316   7.383  30.633  0.00  0.00     0.021 A 
ENDROOT
BRANCH   2   7
ATOM      7  C   LIG d   1       8.118  10.963  31.587  0.00  0.00     0.005 A 
ATOM      8  C   LIG d   1       7.468  11.714  32.620  0.00  0.00     0.073 A 
ATOM      9  C   LIG d   1       8.136  12.853  33.140  0.00  0.00     0.028 A 
ATOM     10  C   LIG d   1       9.363  13.298  32.619  0.00  0.00     0.094 A 
ATOM     11  C   LIG d   1       9.995  12.547  31.617  0.00  0.00     0.024 A 
ATOM     12  C   LIG d   1       9.386  11.387  31.115  0.00  0.00     0.002 A 
BRANCH   8  13
ATOM     13  C   LIG d   1       6.121  11.368  33.185  0.00  0.00     0.419 C 
ATOM     14  F   LIG d   1       5.147  11.643  32.256  0.00  0.00    -0.166 F 
ATOM     15  F   LIG d   1       5.830  12.031  34.353  0.00  0.00    -0.166 F 
ATOM     16  F   LIG d   1       5.997  10.042  33.529  0.00  0.00    -0.166 F 
ENDBRANCH   8  13
BRANCH  10  17
ATOM     17  O   LIG d   1       9.944  14.442  33.098  0.00  0.00    -0.328 OA
ATOM     18  C   LIG d   1       9.258  14.975  34.247  0.00  0.00     0.181 C 
ENDBRANCH  10  17
ENDBRANCH   2   7
BRANCH   1  19
ATOM     19  C   LIG d   1       8.831   8.189  32.343  0.00  0.00     0.052 A 
ATOM     20  C   LIG d   1       8.644   7.381  33.470  0.00  0.00     0.108 A 
ATOM     21  N   LIG d   1       9.745   7.126  34.223  0.00  0.00    -0.219 NA
ATOM     22  C   LIG d   1      10.902   7.696  33.819  0.00  0.00     0.197 A 
ATOM     23  S   LIG d   1      10.516   8.674  32.413  0.00  0.00    -0.047 SA
BRANCH  22  24
ATOM     24  N   LIG d   1      12.147   7.528  34.328  0.00  0.00    -0.186 NA
ATOM     25  C   LIG d   1      12.607   6.409  34.962  0.00  0.00     0.257 C 
ATOM     26  O   LIG d   1      11.856   5.434  35.202  0.00  0.00    -0.270 OA
BRANCH  25  27
ATOM     27  C   LIG d   1      14.034   6.310  35.359  0.00  0.00     0.081 C 
ATOM     28  C   LIG d   1      14.253   5.153  36.371  0.00  0.00     0.010 C 
ATOM     29  C   LIG d   1      14.956   6.203  34.116  0.00  0.00     0.010 C 
ENDBRANCH  25  27
ENDBRANCH  22  24
ENDBRANCH   1  19
TORSDOF 6
ENDMDL
MODEL 6
REMARK NAME *****_MODEL6
REMARK  6 active torsions:
REMARK  status: ('A' for Active; 'I' for Inactive)
REMARK    1  A    between atoms: C_2  and  C_4 
REMARK       I    between atoms: C_4  and  N_6 
REMARK    2  A    between atoms: N_6  and  C_7 
REMARK    3  A    between atoms: C_10  and  C_12 
REMARK    4  A    between atoms: C_13  and  C_18 
REMARK    5  A    between atoms: C_19  and  C_26 
REMARK    6  A    between atoms: C_21  and  O_24 
ROOT
ATOM      1  C   LIG d   1      19.689  10.234  31.435  0.00  0.00     0.011 A 
ATOM      2  C   LIG d   1      19.179   9.879  32.721  0.00  0.00     0.020 A 
ATOM      3  C   LIG d   1      18.575  10.901  33.490  0.00  0.00     0.099 A 
ATOM      4  N   LIG d   1      18.557  12.182  33.048  0.00  0.00    -0.242 NA
ATOM      5  C   LIG d   1      19.076  12.550  31.852  0.00  0.00     0.099 A 
ATOM      6  C   LIG d   1      19.630  11.579  31.004  0.00  0.00     0.021 A 
ENDROOT
BRANCH   2   7
ATOM      7  C   LIG d   1      19.243   8.551  33.252  0.00  0.00     0.005 A 
ATOM      8  C   LIG d   1      18.130   7.649  33.261  0.00  0.00     0.073 A 
ATOM      9  C   LIG d   1      18.315   6.363  33.833  0.00  0.00     0.028 A 
ATOM     10  C   LIG d   1      19.523   5.990  34.448  0.00  0.00     0.094 A 
ATOM     11  C   LIG d   1      20.610   6.877  34.420  0.00  0.00     0.024 A 
ATOM     12  C   LIG d   1      20.475   8.137  33.818  0.00  0.00     0.002 A 
BRANCH   8  13
ATOM     13  C   LIG d   1      16.777   7.983  32.704  0.00  0.00     0.419 C 
ATOM     14  F   LIG d   1      16.888   8.268  31.365  0.00  0.00    -0.166 F 
ATOM     15  F   LIG d   1      16.166   9.037  33.341  0.00  0.00    -0.166 F 
ATOM     16  F   LIG d   1      15.866   6.959  32.831  0.00  0.00    -0.166 F 
ENDBRANCH   8  13
BRANCH  10  17
ATOM     17  O   LIG d   1      19.642   4.766  35.051  0.00  0.00    -0.328 OA
ATOM     18  C   LIG d   1      21.008   4.428  35.359  0.00  0.00     0.181 C 
ENDBRANCH  10  17
ENDBRANCH   2   7
BRANCH   1  19
ATOM     19  C   LIG d   1      20.274   9.284  30.573  0.00  0.00     0.052 A 
ATOM     20  C   LIG d   1      19.693   8.680  29.453  0.00  0.00     0.108 A 
ATOM     21  N   LIG d   1      20.510   7.920  28.680  0.00  0.00    -0.219 NA
ATOM     22  C   LIG d   1      21.796   7.808  29.084  0.00  0.00     0.197 A 
ATOM     23  S   LIG d   1      21.926   8.692  30.595  0.00  0.00    -0.047 SA
BRANCH  22  24
ATOM     24  N   LIG d   1      22.827   7.198  28.451  0.00  0.00    -0.186 NA
ATOM     25  C   LIG d   1      24.075   6.995  28.966  0.00  0.00     0.257 C 
ATOM     26  O   LIG d   1      24.404   7.446  30.089  0.00  0.00    -0.270 OA
BRANCH  25  27
ATOM     27  C   LIG d   1      25.075   6.198  28.210  0.00  0.00     0.081 C 
ATOM     28  C   LIG d   1      26.462   6.238  28.906  0.00  0.00     0.010 C 
ATOM     29  C   LIG d   1      24.568   4.752  27.963  0.00  0.00     0.010 C 
ENDBRANCH  25  27
ENDBRANCH  22  24
ENDBRANCH   1  19
TORSDOF 6
ENDMDL
MODEL 7
REMARK NAME *****_MODEL7
REMARK  6 active torsions:
REMARK  status: ('A' for Active; 'I' for Inactive)
REMARK    1  A    between atoms: C_2  and  C_4 
REMARK       I    between atoms: C_4  and  N_6 
REMARK    2  A    between atoms: N_6  and  C_7 
REMARK    3  A    between atoms: C_10  and  C_12 
REMARK    4  A    between atoms: C_13  and  C_18 
REMARK    5  A    between atoms: C_19  and  C_26 
REMARK    6  A    between atoms: C_21  and  O_24 
ROOT
ATOM      1  C   LIG d   1       8.114   8.720  31.280  0.00  0.00     0.011 A 
ATOM      2  C   LIG d   1       7.877  10.066  30.866  0.00  0.00     0.020 A 
ATOM      3  C   LIG d   1       6.907  10.278  29.858  0.00  0.00     0.099 A 
ATOM      4  N   LIG d   1       6.289   9.231  29.259  0.00  0.00    -0.242 NA
ATOM      5  C   LIG d   1       6.533   7.944  29.604  0.00  0.00     0.099 A 
ATOM      6  C   LIG d   1       7.431   7.659  30.643  0.00  0.00     0.021 A 
ENDROOT
BRANCH   2   7
ATOM      7  C   LIG d   1       8.561  11.193  31.425  0.00  0.00     0.005 A 
ATOM      8  C   LIG d   1       8.026  11.994  32.487  0.00  0.00     0.073 A 
ATOM      9  C   LIG d   1       8.795  13.097  32.944  0.00  0.00     0.028 A 
ATOM     10  C   LIG d   1      10.009  13.460  32.336  0.00  0.00     0.094 A 
ATOM     11  C   LIG d   1      10.527  12.660  31.307  0.00  0.00     0.024 A 
ATOM     12  C   LIG d   1       9.817  11.533  30.865  0.00  0.00     0.002 A 
BRANCH   8  13
ATOM     13  C   LIG d   1       6.703  11.738  33.145  0.00  0.00     0.419 C 
ATOM     14  F   LIG d   1       6.204  12.914  33.650  0.00  0.00    -0.166 F 
ATOM     15  F   LIG d   1       6.762  10.804  34.152  0.00  0.00    -0.166 F 
ATOM     16  F   LIG d   1       5.756  11.226  32.287  0.00  0.00    -0.166 F 
ENDBRANCH   8  13
BRANCH  10  17
ATOM     17  O   LIG d   1      10.688  14.572  32.758  0.00  0.00    -0.328 OA
ATOM     18  C   LIG d   1      10.505  15.702  31.884  0.00  0.00     0.181 C 
ENDBRANCH  10  17
ENDBRANCH   2   7
BRANCH   1  19
ATOM     19  C   LIG d   1       9.031   8.403  32.304  0.00  0.00     0.052 A 
ATOM     20  C   LIG d   1       8.784   7.668  33.468  0.00  0.00     0.108 A 
ATOM     21  N   LIG d   1       9.865   7.349  34.226  0.00  0.00    -0.219 NA
ATOM     22  C   LIG d   1      11.065   7.793  33.787  0.00  0.00     0.197 A 
ATOM     23  S   LIG d   1      10.753   8.736  32.340  0.00  0.00    -0.047 SA
BRANCH  22  24
ATOM     24  N   LIG d   1      12.294   7.535  34.295  0.00  0.00    -0.186 NA
ATOM     25  C   LIG d   1      12.655   6.416  34.989  0.00  0.00     0.257 C 
ATOM     26  O   LIG d   1      11.818   5.532  35.291  0.00  0.00    -0.270 OA
BRANCH  25  27
ATOM     27  C   LIG d   1      14.072   6.204  35.380  0.00  0.00     0.081 C 
ATOM     28  C   LIG d   1      14.183   5.177  36.539  0.00  0.00     0.010 C 
ATOM     29  C   LIG d   1      14.941   5.821  34.153  0.00  0.00     0.010 C 
ENDBRANCH  25  27
ENDBRANCH  22  24
ENDBRANCH   1  19
TORSDOF 6
ENDMDL
MODEL 8
REMARK NAME *****_MODEL8
REMARK  6 active torsions:
REMARK  status: ('A' for Active; 'I' for Inactive)
REMARK    1  A    between atoms: C_2  and  C_4 
REMARK       I    between atoms: C_4  and  N_6 
REMARK    2  A    between atoms: N_6  and  C_7 
REMARK    3  A    between atoms: C_10  and  C_12 
REMARK    4  A    between atoms: C_13  and  C_18 
REMARK    5  A    between atoms: C_19  and  C_26 
REMARK    6  A    between atoms: C_21  and  O_24 
ROOT
ATOM      1  C   LIG d   1      13.978   9.159  33.040  0.00  0.00     0.011 A 
ATOM      2  C   LIG d   1      14.825   9.940  32.196  0.00  0.00     0.020 A 
ATOM      3  C   LIG d   1      14.310  11.164  31.705  0.00  0.00     0.099 A 
ATOM      4  N   LIG d   1      13.032  11.533  31.967  0.00  0.00    -0.242 NA
ATOM      5  C   LIG d   1      12.196  10.785  32.727  0.00  0.00     0.099 A 
ATOM      6  C   LIG d   1      12.659   9.593  33.305  0.00  0.00     0.021 A 
ENDROOT
BRANCH   2   7
ATOM      7  C   LIG d   1      16.155   9.550  31.839  0.00  0.00     0.005 A 
ATOM      8  C   LIG d   1      17.330  10.108  32.439  0.00  0.00     0.073 A 
ATOM      9  C   LIG d   1      18.595   9.649  31.986  0.00  0.00     0.028 A 
ATOM     10  C   LIG d   1      18.718   8.734  30.927  0.00  0.00     0.094 A 
ATOM     11  C   LIG d   1      17.559   8.184  30.357  0.00  0.00     0.024 A 
ATOM     12  C   LIG d   1      16.293   8.578  30.816  0.00  0.00     0.002 A 
BRANCH   8  13
ATOM     13  C   LIG d   1      17.305  11.151  33.517  0.00  0.00     0.419 C 
ATOM     14  F   LIG d   1      16.561  12.228  33.100  0.00  0.00    -0.166 F 
ATOM     15  F   LIG d   1      18.555  11.584  33.891  0.00  0.00    -0.166 F 
ATOM     16  F   LIG d   1      16.753  10.704  34.696  0.00  0.00    -0.166 F 
ENDBRANCH   8  13
BRANCH  10  17
ATOM     17  O   LIG d   1      19.956   8.367  30.470  0.00  0.00    -0.328 OA
ATOM     18  C   LIG d   1      19.911   7.762  29.164  0.00  0.00     0.181 C 
ENDBRANCH  10  17
ENDBRANCH   2   7
BRANCH   1  19
ATOM     19  C   LIG d   1      14.408   7.945  33.613  0.00  0.00     0.052 A 
ATOM     20  C   LIG d   1      13.695   6.744  33.694  0.00  0.00     0.108 A 
ATOM     21  N   LIG d   1      14.380   5.660  34.142  0.00  0.00    -0.219 NA
ATOM     22  C   LIG d   1      15.674   5.859  34.482  0.00  0.00     0.197 A 
ATOM     23  S   LIG d   1      15.992   7.572  34.268  0.00  0.00    -0.047 SA
BRANCH  22  24
ATOM     24  N   LIG d   1      16.595   4.940  34.860  0.00  0.00    -0.186 NA
ATOM     25  C   LIG d   1      17.730   4.616  34.175  0.00  0.00     0.257 C 
ATOM     26  O   LIG d   1      17.982   5.110  33.050  0.00  0.00    -0.270 OA
BRANCH  25  27
ATOM     27  C   LIG d   1      18.719   3.680  34.767  0.00  0.00     0.081 C 
ATOM     28  C   LIG d   1      18.934   2.443  33.854  0.00  0.00     0.010 C 
ATOM     29  C   LIG d   1      20.045   4.409  35.112  0.00  0.00     0.010 C 
ENDBRANCH  25  27
ENDBRANCH  22  24
ENDBRANCH   1  19
TORSDOF 6
ENDMDL
MODEL 9
REMARK NAME *****_MODEL9
REMARK  6 active torsions:
REMARK  status: ('A' for Active; 'I' for Inactive)
REMARK    1  A    between atoms: C_2  and  C_4 
REMARK       I    between atoms: C_4  and  N_6 
REMARK    2  A    between atoms: N_6  and  C_7 
REMARK    3  A    between atoms: C_10  and  C_12 
REMARK    4  A    between atoms: C_13  and  C_18 
REMARK    5  A    between atoms: C_19  and  C_26 
REMARK    6  A    between atoms: C_21  and  O_24 
ROOT
ATOM      1  C   LIG d   1      17.448  11.514  32.132  0.00  0.00     0.011 A 
ATOM      2  C   LIG d   1      18.857  11.319  32.257  0.00  0.00     0.020 A 
ATOM      3  C   LIG d   1      19.694  12.440  32.051  0.00  0.00     0.099 A 
ATOM      4  N   LIG d   1      19.174  13.633  31.670  0.00  0.00    -0.242 NA
ATOM      5  C   LIG d   1      17.844  13.829  31.500  0.00  0.00     0.099 A 
ATOM      6  C   LIG d   1      16.947  12.781  31.754  0.00  0.00     0.021 A 
ENDROOT
BRANCH   2   7
ATOM      7  C   LIG d   1      19.449  10.058  32.588  0.00  0.00     0.005 A 
ATOM      8  C   LIG d   1      19.738   9.042  31.619  0.00  0.00     0.073 A 
ATOM      9  C   LIG d   1      20.311   7.826  32.076  0.00  0.00     0.028 A 
ATOM     10  C   LIG d   1      20.524   7.571  33.442  0.00  0.00     0.094 A 
ATOM     11  C   LIG d   1      20.250   8.579  34.379  0.00  0.00     0.024 A 
ATOM     12  C   LIG d   1      19.730   9.812  33.955  0.00  0.00     0.002 A 
BRANCH   8  13
ATOM     13  C   LIG d   1      19.470   9.186  30.150  0.00  0.00     0.419 C 
ATOM     14  F   LIG d   1      19.804   8.020  29.505  0.00  0.00    -0.166 F 
ATOM     15  F   LIG d   1      20.145  10.232  29.569  0.00  0.00    -0.166 F 
ATOM     16  F   LIG d   1      18.152   9.452  29.859  0.00  0.00    -0.166 F 
ENDBRANCH   8  13
BRANCH  10  17
ATOM     17  O   LIG d   1      21.013   6.359  33.851  0.00  0.00    -0.328 OA
ATOM     18  C   LIG d   1      20.778   6.107  35.249  0.00  0.00     0.181 C 
ENDBRANCH  10  17
ENDBRANCH   2   7
BRANCH   1  19
ATOM     19  C   LIG d   1      16.525  10.472  32.356  0.00  0.00     0.052 A 
ATOM     20  C   LIG d   1      15.701   9.849  31.412  0.00  0.00     0.108 A 
ATOM     21  N   LIG d   1      15.016   8.755  31.834  0.00  0.00    -0.219 NA
ATOM     22  C   LIG d   1      15.184   8.395  33.127  0.00  0.00     0.197 A 
ATOM     23  S   LIG d   1      16.245   9.593  33.847  0.00  0.00    -0.047 SA
BRANCH  22  24
ATOM     24  N   LIG d   1      14.699   7.302  33.766  0.00  0.00    -0.186 NA
ATOM     25  C   LIG d   1      15.431   6.229  34.182  0.00  0.00     0.257 C 
ATOM     26  O   LIG d   1      16.655   6.129  33.926  0.00  0.00    -0.270 OA
BRANCH  25  27
ATOM     27  C   LIG d   1      14.793   5.155  34.985  0.00  0.00     0.081 C 
ATOM     28  C   LIG d   1      15.637   4.820  36.243  0.00  0.00     0.010 C 
ATOM     29  C   LIG d   1      13.321   5.510  35.326  0.00  0.00     0.010 C 
ENDBRANCH  25  27
ENDBRANCH  22  24
ENDBRANCH   1  19
TORSDOF 6
ENDMDL
MODEL 10
REMARK NAME *****_MODEL10
REMARK  6 active torsions:
REMARK  status: ('A' for Active; 'I' for Inactive)
REMARK    1  A    between atoms: C_2  and  C_4 
REMARK       I    between atoms: C_4  and  N_6 
REMARK    2  A    between atoms: N_6  and  C_7 
REMARK    3  A    between atoms: C_10  and  C_12 
REMARK    4  A    between atoms: C_13  and  C_18 
REMARK    5  A    between atoms: C_19  and  C_26 
REMARK    6  A    between atoms: C_21  and  O_24 
ROOT
ATOM      1  C   LIG d   1       7.698   3.085  40.634  0.00  0.00     0.011 A 
ATOM      2  C   LIG d   1       6.515   3.732  40.163  0.00  0.00     0.020 A 
ATOM      3  C   LIG d   1       6.394   5.122  40.395  0.00  0.00     0.099 A 
ATOM      4  N   LIG d   1       7.334   5.791  41.107  0.00  0.00    -0.242 NA
ATOM      5  C   LIG d   1       8.441   5.188  41.604  0.00  0.00     0.099 A 
ATOM      6  C   LIG d   1       8.663   3.825  41.354  0.00  0.00     0.021 A 
ENDROOT
BRANCH   2   7
ATOM      7  C   LIG d   1       5.468   3.047  39.468  0.00  0.00     0.005 A 
ATOM      8  C   LIG d   1       4.325   2.481  40.122  0.00  0.00     0.073 A 
ATOM      9  C   LIG d   1       3.362   1.810  39.323  0.00  0.00     0.028 A 
ATOM     10  C   LIG d   1       3.541   1.624  37.941  0.00  0.00     0.094 A 
ATOM     11  C   LIG d   1       4.658   2.195  37.312  0.00  0.00     0.024 A 
ATOM     12  C   LIG d   1       5.603   2.908  38.064  0.00  0.00     0.002 A 
BRANCH   8  13
ATOM     13  C   LIG d   1       4.084   2.554  41.601  0.00  0.00     0.419 C 
ATOM     14  F   LIG d   1       2.794   2.170  41.878  0.00  0.00    -0.166 F 
ATOM     15  F   LIG d   1       4.307   3.802  42.132  0.00  0.00    -0.166 F 
ATOM     16  F   LIG d   1       4.920   1.740  42.331  0.00  0.00    -0.166 F 
ENDBRANCH   8  13
BRANCH  10  17
ATOM     17  O   LIG d   1       2.625   0.911  37.215  0.00  0.00    -0.328 OA
ATOM     18  C   LIG d   1       3.221  -0.172  36.476  0.00  0.00     0.181 C 
ENDBRANCH  10  17
ENDBRANCH   2   7
BRANCH   1  19
ATOM     19  C   LIG d   1       7.935   1.712  40.420  0.00  0.00     0.052 A 
ATOM     20  C   LIG d   1       7.930   1.028  39.200  0.00  0.00     0.108 A 
ATOM     21  N   LIG d   1       8.352  -0.263  39.226  0.00  0.00    -0.219 NA
ATOM     22  C   LIG d   1       8.713  -0.759  40.431  0.00  0.00     0.197 A 
ATOM     23  S   LIG d   1       8.421   0.513  41.605  0.00  0.00    -0.047 SA
BRANCH  22  24
ATOM     24  N   LIG d   1       9.255  -1.969  40.715  0.00  0.00    -0.186 NA
ATOM     25  C   LIG d   1      10.568  -2.312  40.567  0.00  0.00     0.257 C 
ATOM     26  O   LIG d   1      11.400  -1.523  40.060  0.00  0.00    -0.270 OA
BRANCH  25  27
ATOM     27  C   LIG d   1      11.051  -3.635  41.037  0.00  0.00     0.081 C 
ATOM     28  C   LIG d   1      11.400  -4.559  39.840  0.00  0.00     0.010 C 
ATOM     29  C   LIG d   1      12.226  -3.479  42.039  0.00  0.00     0.010 C 
ENDBRANCH  25  27
ENDBRANCH  22  24
ENDBRANCH   1  19
TORSDOF 6
ENDMDL
