@<TRIPOS>MOLECULE
*****_MODEL1
 35 42 0 0 0
SMALL
GASTEIGER

@<TRIPOS>ATOM
      1  C         18.1020   10.2790   32.4500 C.3     1  LIG1        0.1086
      2  C         16.7120    9.6380   32.9990 C.3     1  LIG1        0.0739
      3  C         16.2140    9.2470   31.4680 C.3     1  LIG1        0.2078
      4  O         17.3340    8.2670   31.2480 O.3     1  LIG1       -0.3186
      5  C         18.1300    7.8920   32.1150 C.3     1  LIG1        0.1915
      6  C         19.2760    7.2690   31.2850 C.3     1  LIG1        0.0566
      7  C         19.0560    8.9360   32.9400 C.3     1  LIG1        0.1761
      8  N         18.3990   11.0550   33.7670 N.3     1  LIG1       -0.2152
      9  C         18.7720   11.9390   33.5310 C.3     1  LIG1        0.1075
     10  O         18.3700    8.6990   34.2700 O.3     1  LIG1       -0.3478
     11  C         19.3460    8.7660   35.2420 C.3     1  LIG1        0.1743
     12  N         15.1830    8.1600   31.9790 N.ar    1  LIG1       -0.3039
     13  C         13.9900    8.7270   32.2920 C.ar    1  LIG1        0.0618
     14  C         13.3160    9.8720   31.9030 C.ar    1  LIG1        0.0172
     15  C         13.2180    7.7650   32.9340 C.ar    1  LIG1        0.0174
     16  C         11.9440    9.9070   31.8880 C.ar    1  LIG1        0.0015
     17  C         11.1720    8.8460   32.3370 C.ar    1  LIG1        0.0001
     18  C         11.8580    7.8510   33.0170 C.ar    1  LIG1        0.0015
     19  C         14.0930    6.7440   33.2880 C.ar    1  LIG1        0.0228
     20  C         14.0740    5.9230   34.4130 C.ar    1  LIG1        0.0543
     21  C         15.3230    7.1820   32.8100 C.ar    1  LIG1        0.0777
     22  C         15.1980    5.2070   34.8140 C.ar    1  LIG1        0.0054
     23  C         13.0400    5.5470   35.3550 C.2     1  LIG1        0.2649
     24  C         16.3700    5.4310   34.1200 C.ar    1  LIG1        0.0165
     25  C         14.9380    4.5250   36.1030 C.3     1  LIG1        0.1420
     26  C         17.6730    4.9730   34.2700 C.ar    1  LIG1        0.0170
     27  C         16.4420    6.5150   33.2890 C.ar    1  LIG1        0.0773
     28  C         18.2390    4.0730   35.1380 C.ar    1  LIG1        0.0015
     29  C         18.4840    5.9290   33.6770 C.ar    1  LIG1        0.0617
     30  C         19.6100    4.1150   35.3400 C.ar    1  LIG1        0.0001
     31  C         20.3540    5.2060   34.9180 C.ar    1  LIG1        0.0015
     32  C         19.8600    5.9320   33.8400 C.ar    1  LIG1        0.0172
     33  N         17.7240    6.9290   33.1680 N.ar    1  LIG1       -0.3054
     34  N         13.7080    5.1440   36.5580 N.am    1  LIG1       -0.1968
     35  O         11.8290    5.8390   35.3240 O.2     1  LIG1       -0.2684
@<TRIPOS>BOND
     1     4     3    1
     2     4     5    1
     3     6     5    1
     4     3    12    1
     5     3     2    1
     6    16    14   ar
     7    16    17   ar
     8    14    13   ar
     9    12    13   ar
    10    12    21   ar
    11     5     7    1
    12     5    33    1
    13    13    15   ar
    14    17    18   ar
    15     1     7    1
    16     1     2    1
    17     1     8    1
    18    21    19   ar
    19    21    27   ar
    20    15    18   ar
    21    15    19   ar
    22     7    10    1
    23    33    27   ar
    24    33    29   ar
    25    19    20   ar
    26    27    24   ar
    27     9     8    1
    28    29    32   ar
    29    29    26   ar
    30    32    31   ar
    31    24    26   ar
    32    24    22   ar
    33    10    11    1
    34    26    28   ar
    35    20    22   ar
    36    20    23    1
    37    22    25    1
    38    31    30   ar
    39    28    30   ar
    40    35    23    2
    41    23    34   am
    42    25    34    1
@<TRIPOS>MOLECULE
*****_MODEL2
 35 41 0 0 0
SMALL
GASTEIGER

@<TRIPOS>ATOM
      1  C         18.7330   10.3220   32.5710 C.3     1  LIG1        0.1067
      2  C         17.2310   10.0090   33.1080 C.3     1  LIG1        0.0738
      3  C         17.3580    8.4040   32.7170 C.3     1  LIG1        0.2060
      4  O         18.4630    8.1490   33.7060 O.3     1  LIG1       -0.3354
      5  C         18.8580    8.9560   34.5530 C.3     1  LIG1        0.1457
      6  C         20.2260    8.3740   34.9740 C.3     1  LIG1        0.0348
      7  C         19.4070   10.4270   34.1490 C.3     1  LIG1        0.1583
      8  N         18.5100   11.8610   32.4920 N.3     1  LIG1       -0.2152
      9  C         18.8100   12.1750   31.6050 C.3     1  LIG1        0.1075
     10  O         18.2570   11.1790   34.7890 O.3     1  LIG1       -0.3497
     11  C         18.1930   10.7680   36.1040 C.3     1  LIG1        0.1742
     12  N         16.1950    7.9750   33.7010 N.ar    1  LIG1       -0.3039
     13  C         16.2730    6.6530   34.0030 C.ar    1  LIG1        0.0618
     14  C         17.2860    5.7100   34.0300 C.ar    1  LIG1        0.0172
     15  C         15.1100    6.3040   34.6810 C.ar    1  LIG1        0.0174
     16  C         17.2420    4.6590   34.9100 C.ar    1  LIG1        0.0015
     17  C         16.1560    4.4380   35.7450 C.ar    1  LIG1        0.0001
     18  C         15.0270    5.1960   35.4740 C.ar    1  LIG1        0.0015
     19  C         14.2160    7.3490   34.4750 C.ar    1  LIG1        0.0229
     20  C         12.8310    7.3050   34.3310 C.ar    1  LIG1        0.0543
     21  C         14.9340    8.2490   33.6950 C.ar    1  LIG1        0.0795
     22  C         12.1210    8.3630   33.7730 C.ar    1  LIG1        0.0055
     23  C         11.8220    6.3350   34.7010 C.2     1  LIG1        0.2649
     24  C         12.8530    9.4160   33.2610 C.ar    1  LIG1        0.0184
     25  C         10.6940    7.9980   33.6220 C.3     1  LIG1        0.1420
     26  C         12.5110   10.5780   32.5820 C.ar    1  LIG1        0.0189
     27  C         14.1970    9.2480   33.0730 C.ar    1  LIG1        0.0968
     28  C         11.2980   11.1210   32.2370 C.ar    1  LIG1        0.0015
     29  C         13.6350   10.9410   31.8560 C.ar    1  LIG1        0.0813
     30  C         11.2550   12.0570   31.2160 C.ar    1  LIG1        0.0001
     31  C         12.3380   12.2300   30.3680 C.ar    1  LIG1        0.0015
     32  C         13.5950   11.9170   30.8730 C.ar    1  LIG1        0.0191
     33  N         14.6370   10.0550   32.0810 N.ar    1  LIG1       -0.2439
     34  N         10.6970    6.5650   33.8430 N.am    1  LIG1       -0.1968
     35  O         11.9700    5.2800   35.3470 O.2     1  LIG1       -0.2684
@<TRIPOS>BOND
     1    31    32   ar
     2    31    30   ar
     3    32    29   ar
     4    30    28   ar
     5     9     8    1
     6    29    33   ar
     7    29    26   ar
     8    33    27   ar
     9    28    26   ar
    10     8     1    1
    11     1     2    1
    12     1     7    1
    13    26    24   ar
    14     3     2    1
    15     3    12    1
    16     3     4    1
    17    27    24   ar
    18    27    21   ar
    19    24    22   ar
    20    25    22    1
    21    25    34    1
    22    21    12   ar
    23    21    19   ar
    24    12    13   ar
    25     4     5    1
    26    22    20   ar
    27    34    23   am
    28    13    14   ar
    29    13    15   ar
    30    14    16   ar
    31     7     5    1
    32     7    10    1
    33    20    19   ar
    34    20    23    1
    35    19    15   ar
    36     5     6    1
    37    15    18   ar
    38    23    35    2
    39    10    11    1
    40    16    17   ar
    41    18    17   ar
@<TRIPOS>MOLECULE
*****_MODEL3
 35 41 0 0 0
SMALL
GASTEIGER

@<TRIPOS>ATOM
      1  C         18.7730   10.2290   32.5720 C.3     1  LIG1        0.1067
      2  C         17.2610    9.9580   33.1020 C.3     1  LIG1        0.0738
      3  C         17.3490    8.3480   32.7220 C.3     1  LIG1        0.2060
      4  O         18.4410    8.0710   33.7190 O.3     1  LIG1       -0.3354
      5  C         18.8510    8.8740   34.5630 C.3     1  LIG1        0.1457
      6  C         20.2020    8.2590   34.9960 C.3     1  LIG1        0.0348
      7  C         19.4410   10.3270   34.1520 C.3     1  LIG1        0.1583
      8  N         18.5900   11.7720   32.4810 N.3     1  LIG1       -0.2152
      9  C         18.8950   12.0720   31.5910 C.3     1  LIG1        0.1075
     10  O         18.3070   11.1120   34.7820 O.3     1  LIG1       -0.3497
     11  C         18.1800   10.6630   36.0790 C.3     1  LIG1        0.1742
     12  N         16.1700    7.9550   33.7030 N.ar    1  LIG1       -0.3039
     13  C         16.2120    6.6340   34.0140 C.ar    1  LIG1        0.0618
     14  C         17.2010    5.6660   34.0530 C.ar    1  LIG1        0.0172
     15  C         15.0360    6.3200   34.6880 C.ar    1  LIG1        0.0174
     16  C         17.1250    4.6230   34.9410 C.ar    1  LIG1        0.0015
     17  C         16.0290    4.4350   35.7710 C.ar    1  LIG1        0.0001
     18  C         14.9210    5.2190   35.4880 C.ar    1  LIG1        0.0015
     19  C         14.1710    7.3850   34.4690 C.ar    1  LIG1        0.0229
     20  C         12.7860    7.3750   34.3160 C.ar    1  LIG1        0.0543
     21  C         14.9150    8.2610   33.6870 C.ar    1  LIG1        0.0795
     22  C         12.1060    8.4470   33.7470 C.ar    1  LIG1        0.0055
     23  C         11.7500    6.4340   34.6880 C.2     1  LIG1        0.2649
     24  C         12.8670    9.4770   33.2320 C.ar    1  LIG1        0.0184
     25  C         10.6710    8.1170   33.5900 C.3     1  LIG1        0.1420
     26  C         12.5580   10.6420   32.5430 C.ar    1  LIG1        0.0189
     27  C         14.2080    9.2730   33.0530 C.ar    1  LIG1        0.0968
     28  C         11.3620   11.2120   32.1870 C.ar    1  LIG1        0.0015
     29  C         13.6960   10.9710   31.8200 C.ar    1  LIG1        0.0813
     30  C         11.3480   12.1430   31.1590 C.ar    1  LIG1        0.0001
     31  C         12.4400   12.2820   30.3160 C.ar    1  LIG1        0.0015
     32  C         13.6860   11.9410   30.8300 C.ar    1  LIG1        0.0191
     33  N         14.6730   10.0620   32.0580 N.ar    1  LIG1       -0.2439
     34  N         10.6370    6.6850   33.8210 N.am    1  LIG1       -0.1968
     35  O         11.8680    5.3790   35.3420 O.2     1  LIG1       -0.2684
@<TRIPOS>BOND
     1    31    32   ar
     2    31    30   ar
     3    32    29   ar
     4    30    28   ar
     5     9     8    1
     6    29    33   ar
     7    29    26   ar
     8    33    27   ar
     9    28    26   ar
    10     8     1    1
    11    26    24   ar
    12     1     2    1
    13     1     7    1
    14     3     2    1
    15     3    12    1
    16     3     4    1
    17    27    24   ar
    18    27    21   ar
    19    24    22   ar
    20    25    22    1
    21    25    34    1
    22    21    12   ar
    23    21    19   ar
    24    12    13   ar
    25     4     5    1
    26    22    20   ar
    27    34    23   am
    28    13    14   ar
    29    13    15   ar
    30    14    16   ar
    31     7     5    1
    32     7    10    1
    33    20    19   ar
    34    20    23    1
    35    19    15   ar
    36     5     6    1
    37    15    18   ar
    38    23    35    2
    39    10    11    1
    40    16    17   ar
    41    18    17   ar
@<TRIPOS>MOLECULE
*****_MODEL4
 35 41 0 0 0
SMALL
GASTEIGER

@<TRIPOS>ATOM
      1  C         18.7620   10.2050   32.5750 C.3     1  LIG1        0.1067
      2  C         17.2490    9.9490   33.1090 C.3     1  LIG1        0.0738
      3  C         17.3140    8.3410   32.7170 C.3     1  LIG1        0.2060
      4  O         18.4070    8.0430   33.7070 O.3     1  LIG1       -0.3354
      5  C         18.8310    8.8340   34.5550 C.3     1  LIG1        0.1457
      6  C         20.1750    8.1990   34.9780 C.3     1  LIG1        0.0348
      7  C         19.4370   10.2830   34.1530 C.3     1  LIG1        0.1583
      8  N         18.5980   11.7510   32.4970 N.3     1  LIG1       -0.2152
      9  C         18.9810   12.0640   31.6420 C.3     1  LIG1        0.1075
     10  O         18.3160   11.0770   34.7930 O.3     1  LIG1       -0.3497
     11  C         18.2140   10.6460   36.0990 C.3     1  LIG1        0.1742
     12  N         16.1340    7.9560   33.6990 N.ar    1  LIG1       -0.3039
     13  C         16.1720    6.6360   34.0150 C.ar    1  LIG1        0.0618
     14  C         17.1580    5.6650   34.0570 C.ar    1  LIG1        0.0172
     15  C         14.9960    6.3280   34.6900 C.ar    1  LIG1        0.0174
     16  C         17.0790    4.6250   34.9490 C.ar    1  LIG1        0.0015
     17  C         15.9830    4.4440   35.7800 C.ar    1  LIG1        0.0001
     18  C         14.8780    5.2310   35.4940 C.ar    1  LIG1        0.0015
     19  C         14.1340    7.3950   34.4670 C.ar    1  LIG1        0.0229
     20  C         12.7490    7.3880   34.3150 C.ar    1  LIG1        0.0543
     21  C         14.8810    8.2650   33.6820 C.ar    1  LIG1        0.0795
     22  C         12.0720    8.4600   33.7430 C.ar    1  LIG1        0.0055
     23  C         11.7100    6.4520   34.6910 C.2     1  LIG1        0.2649
     24  C         12.8370    9.4860   33.2230 C.ar    1  LIG1        0.0184
     25  C         10.6360    8.1350   33.5870 C.3     1  LIG1        0.1420
     26  C         12.5320   10.6500   32.5300 C.ar    1  LIG1        0.0189
     27  C         14.1770    9.2780   33.0440 C.ar    1  LIG1        0.0968
     28  C         11.3370   11.2230   32.1720 C.ar    1  LIG1        0.0015
     29  C         13.6700   10.9730   31.8060 C.ar    1  LIG1        0.0813
     30  C         11.3260   12.1500   31.1410 C.ar    1  LIG1        0.0001
     31  C         12.4180   12.2830   30.2970 C.ar    1  LIG1        0.0015
     32  C         13.6630   11.9390   30.8130 C.ar    1  LIG1        0.0191
     33  N         14.6450   10.0620   32.0470 N.ar    1  LIG1       -0.2439
     34  N         10.5970    6.7040   33.8230 N.am    1  LIG1       -0.1968
     35  O         11.8250    5.4000   35.3480 O.2     1  LIG1       -0.2684
@<TRIPOS>BOND
     1    31    32   ar
     2    31    30   ar
     3    32    29   ar
     4    30    28   ar
     5     9     8    1
     6    29    33   ar
     7    29    26   ar
     8    33    27   ar
     9    28    26   ar
    10     8     1    1
    11    26    24   ar
    12     1     2    1
    13     1     7    1
    14     3     2    1
    15     3    12    1
    16     3     4    1
    17    27    24   ar
    18    27    21   ar
    19    24    22   ar
    20    25    22    1
    21    25    34    1
    22    21    12   ar
    23    21    19   ar
    24    12    13   ar
    25     4     5    1
    26    22    20   ar
    27    34    23   am
    28    13    14   ar
    29    13    15   ar
    30    14    16   ar
    31     7     5    1
    32     7    10    1
    33    20    19   ar
    34    20    23    1
    35    19    15   ar
    36     5     6    1
    37    15    18   ar
    38    23    35    2
    39    10    11    1
    40    16    17   ar
    41    18    17   ar
@<TRIPOS>MOLECULE
*****_MODEL5
 35 41 0 0 0
SMALL
GASTEIGER

@<TRIPOS>ATOM
      1  C         18.9410    9.9210   31.3990 C.3     1  LIG1        0.1067
      2  C         17.6810    9.5250   32.3460 C.3     1  LIG1        0.0738
      3  C         17.8190    7.9180   31.9660 C.3     1  LIG1        0.2060
      4  O         19.1740    7.7830   32.6060 O.3     1  LIG1       -0.3354
      5  C         19.7260    8.6500   33.2900 C.3     1  LIG1        0.1457
      6  C         21.1990    8.1830   33.3160 C.3     1  LIG1        0.0348
      7  C         20.0210   10.1370   32.7180 C.3     1  LIG1        0.1583
      8  N         18.5830   11.4350   31.3560 N.3     1  LIG1       -0.2152
      9  C         18.6060   11.7360   30.4160 C.3     1  LIG1        0.1075
     10  O         19.0420   10.8320   33.6440 O.3     1  LIG1       -0.3497
     11  C         19.3480   10.4270   34.9260 C.3     1  LIG1        0.1742
     12  N         17.0180    7.4490   33.2480 N.ar    1  LIG1       -0.3039
     13  C         17.3130    6.1620   33.5660 C.ar    1  LIG1        0.0618
     14  C         18.3890    5.3200   33.3470 C.ar    1  LIG1        0.0172
     15  C         16.4210    5.7530   34.5510 C.ar    1  LIG1        0.0174
     16  C         18.6970    4.3280   34.2440 C.ar    1  LIG1        0.0015
     17  C         17.9070    4.0630   35.3530 C.ar    1  LIG1        0.0001
     18  C         16.6730    4.6950   35.3760 C.ar    1  LIG1        0.0015
     19  C         15.4000    6.6960   34.5610 C.ar    1  LIG1        0.0229
     20  C         14.0400    6.5160   34.8060 C.ar    1  LIG1        0.0543
     21  C         15.7800    7.6050   33.5800 C.ar    1  LIG1        0.0795
     22  C         13.0980    7.4670   34.4270 C.ar    1  LIG1        0.0055
     23  C         13.2770    5.4840   35.4760 C.2     1  LIG1        0.2649
     24  C         13.5480    8.5470   33.6940 C.ar    1  LIG1        0.0184
     25  C         11.7290    6.9640   34.6890 C.3     1  LIG1        0.1420
     26  C         12.9140    9.6260   33.0930 C.ar    1  LIG1        0.0189
     27  C         14.8010    8.4900   33.1480 C.ar    1  LIG1        0.0968
     28  C         11.6030   10.0320   33.0760 C.ar    1  LIG1        0.0015
     29  C         13.7550   10.0430   32.0720 C.ar    1  LIG1        0.0813
     30  C         11.1860   10.8930   32.0720 C.ar    1  LIG1        0.0001
     31  C         11.9750   11.1090   30.9530 C.ar    1  LIG1        0.0015
     32  C         13.3480   10.9450   31.1020 C.ar    1  LIG1        0.0191
     33  N         14.8680    9.2690   32.0450 N.ar    1  LIG1       -0.2439
     34  N         11.9440    5.5540   34.9530 N.am    1  LIG1       -0.1968
     35  O         13.7050    4.4910   36.0940 O.2     1  LIG1       -0.2684
@<TRIPOS>BOND
     1     9     8    1
     2    31    32   ar
     3    31    30   ar
     4    32    29   ar
     5     8     1    1
     6     1     2    1
     7     1     7    1
     8     3     2    1
     9     3     4    1
    10     3    12    1
    11    33    29   ar
    12    33    27   ar
    13    30    28   ar
    14    29    26   ar
    15     4     5    1
    16     7     5    1
    17     7    10    1
    18    28    26   ar
    19    26    24   ar
    20    27    21   ar
    21    27    24   ar
    22    12    13   ar
    23    12    21   ar
    24     5     6    1
    25    14    13   ar
    26    14    16   ar
    27    13    15   ar
    28    21    19   ar
    29    10    11    1
    30    24    22   ar
    31    16    17   ar
    32    22    25    1
    33    22    20   ar
    34    15    19   ar
    35    15    18   ar
    36    19    20   ar
    37    25    34    1
    38    20    23    1
    39    34    23   am
    40    17    18   ar
    41    23    35    2
@<TRIPOS>MOLECULE
*****_MODEL6
 35 41 0 0 0
SMALL
GASTEIGER

@<TRIPOS>ATOM
      1  C         18.9480   10.2310   32.1000 C.3     1  LIG1        0.1067
      2  C         17.5200    9.9390   32.8190 C.3     1  LIG1        0.0738
      3  C         17.5360    8.3500   32.3490 C.3     1  LIG1        0.2060
      4  O         18.7520    8.0180   33.1710 O.3     1  LIG1       -0.3354
      5  C         19.2830    8.7730   33.9900 C.3     1  LIG1        0.1457
      6  C         20.6740    8.1310   34.2010 C.3     1  LIG1        0.0348
      7  C         19.8270   10.2440   33.5770 C.3     1  LIG1        0.1583
      8  N         18.7710   11.7770   32.1150 N.3     1  LIG1       -0.2152
      9  C         18.9840   12.1250   31.2150 C.3     1  LIG1        0.1075
     10  O         18.7990   10.9990   34.3960 O.3     1  LIG1       -0.3497
     11  C         19.0280   10.6820   35.7180 C.3     1  LIG1        0.1742
     12  N         16.4990    7.9120   33.4610 N.ar    1  LIG1       -0.3039
     13  C         16.6590    6.6050   33.7920 C.ar    1  LIG1        0.0618
     14  C         17.7060    5.7010   33.7410 C.ar    1  LIG1        0.0172
     15  C         15.5860    6.2370   34.5970 C.ar    1  LIG1        0.0174
     16  C         17.7940    4.6780   34.6510 C.ar    1  LIG1        0.0015
     17  C         16.8100    4.4460   35.6010 C.ar    1  LIG1        0.0001
     18  C         15.6300    5.1530   35.4260 C.ar    1  LIG1        0.0015
     19  C         14.6360    7.2410   34.4540 C.ar    1  LIG1        0.0229
     20  C         13.2460    7.1410   34.4560 C.ar    1  LIG1        0.0543
     21  C         15.2330    8.1390   33.5780 C.ar    1  LIG1        0.0795
     22  C         12.4410    8.1540   33.9450 C.ar    1  LIG1        0.0055
     23  C         12.3190    6.1480   34.9580 C.2     1  LIG1        0.2649
     24  C         13.0740    9.2140   33.3290 C.ar    1  LIG1        0.0184
     25  C         11.0210    7.7320   33.9530 C.3     1  LIG1        0.1420
     26  C         12.6180   10.3400   32.6550 C.ar    1  LIG1        0.0189
     27  C         14.3970    9.0900   33.0060 C.ar    1  LIG1        0.0968
     28  C         11.3560   10.8260   32.4220 C.ar    1  LIG1        0.0015
     29  C         13.6460   10.7190   31.8050 C.ar    1  LIG1        0.0813
     30  C         11.1710   11.7260   31.3840 C.ar    1  LIG1        0.0001
     31  C         12.1530   11.9110   30.4230 C.ar    1  LIG1        0.0015
     32  C         13.4670   11.6600   30.8040 C.ar    1  LIG1        0.0191
     33  N         14.7000    9.8790   31.9510 N.ar    1  LIG1       -0.2439
     34  N         11.1040    6.3080   34.2140 N.am    1  LIG1       -0.1968
     35  O         12.5750    5.1210   35.6150 O.2     1  LIG1       -0.2684
@<TRIPOS>BOND
     1    31    32   ar
     2    31    30   ar
     3    32    29   ar
     4     9     8    1
     5    30    28   ar
     6    29    33   ar
     7    29    26   ar
     8    33    27   ar
     9     1     8    1
    10     1     2    1
    11     1     7    1
    12     3     2    1
    13     3     4    1
    14     3    12    1
    15    28    26   ar
    16    26    24   ar
    17    27    24   ar
    18    27    21   ar
    19     4     5    1
    20    24    22   ar
    21    12    21   ar
    22    12    13   ar
    23     7     5    1
    24     7    10    1
    25    21    19   ar
    26    14    13   ar
    27    14    16   ar
    28    13    15   ar
    29    22    25    1
    30    22    20   ar
    31    25    34    1
    32     5     6    1
    33    34    23   am
    34    10    11    1
    35    19    20   ar
    36    19    15   ar
    37    20    23    1
    38    15    18   ar
    39    16    17   ar
    40    23    35    2
    41    18    17   ar
@<TRIPOS>MOLECULE
*****_MODEL7
 35 41 0 0 0
SMALL
GASTEIGER

@<TRIPOS>ATOM
      1  C         18.9740    9.8940   31.3900 C.3     1  LIG1        0.1067
      2  C         17.7220    9.5060   32.3520 C.3     1  LIG1        0.0738
      3  C         17.8260    7.9030   31.9480 C.3     1  LIG1        0.2060
      4  O         19.1880    7.7340   32.5630 O.3     1  LIG1       -0.3354
      5  C         19.7660    8.5820   33.2500 C.3     1  LIG1        0.1457
      6  C         21.2310    8.0890   33.2460 C.3     1  LIG1        0.0348
      7  C         20.0780   10.0730   32.6940 C.3     1  LIG1        0.1583
      8  N         18.6410   11.4140   31.3750 N.3     1  LIG1       -0.2152
      9  C         18.7070   11.7390   30.4440 C.3     1  LIG1        0.1075
     10  O         19.1260   10.7700   33.6460 O.3     1  LIG1       -0.3497
     11  C         19.5380   10.4580   34.9240 C.3     1  LIG1        0.1742
     12  N         17.0370    7.4290   33.2360 N.ar    1  LIG1       -0.3039
     13  C         17.3510    6.1480   33.5570 C.ar    1  LIG1        0.0618
     14  C         18.4370    5.3190   33.3370 C.ar    1  LIG1        0.0172
     15  C         16.4690    5.7320   34.5490 C.ar    1  LIG1        0.0174
     16  C         18.7620    4.3350   34.2370 C.ar    1  LIG1        0.0015
     17  C         17.9810    4.0650   35.3520 C.ar    1  LIG1        0.0001
     18  C         16.7390    4.6810   35.3780 C.ar    1  LIG1        0.0015
     19  C         15.4350    6.6620   34.5590 C.ar    1  LIG1        0.0229
     20  C         14.0790    6.4650   34.8120 C.ar    1  LIG1        0.0543
     21  C         15.7990    7.5710   33.5730 C.ar    1  LIG1        0.0795
     22  C         13.1230    7.4010   34.4330 C.ar    1  LIG1        0.0055
     23  C         13.3330    5.4260   35.4910 C.2     1  LIG1        0.2649
     24  C         13.5550    8.4830   33.6930 C.ar    1  LIG1        0.0184
     25  C         11.7630    6.8810   34.7040 C.3     1  LIG1        0.1420
     26  C         12.9050    9.5520   33.0900 C.ar    1  LIG1        0.0189
     27  C         14.8060    8.4410   33.1420 C.ar    1  LIG1        0.0968
     28  C         11.5880    9.9400   33.0780 C.ar    1  LIG1        0.0015
     29  C         13.7350    9.9740   32.0630 C.ar    1  LIG1        0.0813
     30  C         11.1550   10.7910   32.0720 C.ar    1  LIG1        0.0001
     31  C         11.9350   11.0120   30.9470 C.ar    1  LIG1        0.0015
     32  C         13.3110   10.8670   31.0910 C.ar    1  LIG1        0.0191
     33  N         14.8580    9.2150   32.0340 N.ar    1  LIG1       -0.2439
     34  N         11.9970    5.4760   34.9740 N.am    1  LIG1       -0.1968
     35  O         13.7770    4.4410   36.1110 O.2     1  LIG1       -0.2684
@<TRIPOS>BOND
     1     9     8    1
     2    31    32   ar
     3    31    30   ar
     4    32    29   ar
     5     8     1    1
     6     1     2    1
     7     1     7    1
     8     3     2    1
     9     3     4    1
    10     3    12    1
    11    33    29   ar
    12    33    27   ar
    13    29    26   ar
    14    30    28   ar
    15     4     5    1
    16     7     5    1
    17     7    10    1
    18    28    26   ar
    19    26    24   ar
    20    27    21   ar
    21    27    24   ar
    22    12    13   ar
    23    12    21   ar
    24     6     5    1
    25    14    13   ar
    26    14    16   ar
    27    13    15   ar
    28    21    19   ar
    29    10    11    1
    30    24    22   ar
    31    16    17   ar
    32    22    25    1
    33    22    20   ar
    34    15    19   ar
    35    15    18   ar
    36    19    20   ar
    37    25    34    1
    38    20    23    1
    39    34    23   am
    40    17    18   ar
    41    23    35    2
@<TRIPOS>MOLECULE
*****_MODEL8
 35 41 0 0 0
SMALL
GASTEIGER

@<TRIPOS>ATOM
      1  C         18.7300   10.5330   31.5600 C.3     1  LIG1        0.1067
      2  C         17.9780    9.1860   32.0740 C.3     1  LIG1        0.0738
      3  C         16.8280   10.0610   32.8830 C.3     1  LIG1        0.2060
      4  O         16.2690   10.6730   31.6270 O.3     1  LIG1       -0.3354
      5  C         16.5840   10.3480   30.4780 C.3     1  LIG1        0.1457
      6  C         16.0700   11.5350   29.6310 C.3     1  LIG1        0.0348
      7  C         18.1190   10.4100   29.9580 C.3     1  LIG1        0.1583
      8  N         20.0480    9.7940   31.1850 N.3     1  LIG1       -0.2152
      9  C         20.8060   10.2790   31.5930 C.3     1  LIG1        0.1075
     10  O         18.2710    8.9080   29.8190 O.3     1  LIG1       -0.3497
     11  C         19.1360    8.6890   28.7680 C.3     1  LIG1        0.1742
     12  N         15.8000    8.8580   32.9160 N.ar    1  LIG1       -0.3039
     13  C         14.5510    9.2910   33.2250 C.ar    1  LIG1        0.0618
     14  C         13.8700   10.4900   33.1060 C.ar    1  LIG1        0.0172
     15  C         13.7580    8.1700   33.4520 C.ar    1  LIG1        0.0174
     16  C         12.5100   10.5090   32.9260 C.ar    1  LIG1        0.0015
     17  C         11.7450    9.3510   32.9410 C.ar    1  LIG1        0.0001
     18  C         12.3960    8.2090   33.3810 C.ar    1  LIG1        0.0015
     19  C         14.6360    7.1020   33.6010 C.ar    1  LIG1        0.0229
     20  C         14.5250    5.9830   34.4230 C.ar    1  LIG1        0.0543
     21  C         15.8900    7.6790   33.4340 C.ar    1  LIG1        0.0795
     22  C         15.6290    5.1960   34.7370 C.ar    1  LIG1        0.0055
     23  C         13.4080    5.3310   35.0720 C.2     1  LIG1        0.2649
     24  C         16.8620    5.6320   34.2960 C.ar    1  LIG1        0.0184
     25  C         15.2530    4.1580   35.7240 C.3     1  LIG1        0.1420
     26  C         18.1590    5.1680   34.4710 C.ar    1  LIG1        0.0189
     27  C         16.9770    6.9150   33.8360 C.ar    1  LIG1        0.0968
     28  C         18.6640    4.0580   35.1020 C.ar    1  LIG1        0.0015
     29  C         18.9860    6.2680   34.2940 C.ar    1  LIG1        0.0813
     30  C         19.9970    4.0570   35.4820 C.ar    1  LIG1        0.0001
     31  C         20.7300    5.2340   35.4980 C.ar    1  LIG1        0.0015
     32  C         20.3310    6.2410   34.6260 C.ar    1  LIG1        0.0191
     33  N         18.2410    7.3640   34.0070 N.ar    1  LIG1       -0.2439
     34  N         13.9480    4.5970   36.1790 N.am    1  LIG1       -0.1968
     35  O         12.1960    5.6020   34.9730 O.2     1  LIG1       -0.2684
@<TRIPOS>BOND
     1    11    10    1
     2     6     5    1
     3    10     7    1
     4     7     5    1
     5     7     1    1
     6     5     4    1
     7     8     1    1
     8     8     9    1
     9     1     2    1
    10     4     3    1
    11     2     3    1
    12     3    12    1
    13    12    13   ar
    14    12    21   ar
    15    16    17   ar
    16    16    14   ar
    17    17    18   ar
    18    14    13   ar
    19    13    15   ar
    20    18    15   ar
    21    21    19   ar
    22    21    27   ar
    23    15    19   ar
    24    19    20   ar
    25    27    33   ar
    26    27    24   ar
    27    33    29   ar
    28    29    26   ar
    29    29    32   ar
    30    24    26   ar
    31    24    22   ar
    32    20    22   ar
    33    20    23    1
    34    26    28   ar
    35    32    31   ar
    36    22    25    1
    37    35    23    2
    38    23    34   am
    39    28    30   ar
    40    30    31   ar
    41    25    34    1
@<TRIPOS>MOLECULE
*****_MODEL9
 35 41 0 0 0
SMALL
GASTEIGER

@<TRIPOS>ATOM
      1  C         19.1530    9.7630   32.5230 C.3     1  LIG1        0.1067
      2  C         17.6470    9.6820   33.1310 C.3     1  LIG1        0.0738
      3  C         17.4310    8.1440   32.5570 C.3     1  LIG1        0.2060
      4  O         18.5100    7.5610   33.4280 O.3     1  LIG1       -0.3354
      5  C         19.1000    8.1670   34.3280 C.3     1  LIG1        0.1457
      6  C         20.3430    7.2840   34.5810 C.3     1  LIG1        0.0348
      7  C         19.9120    9.5420   34.0490 C.3     1  LIG1        0.1583
      8  N         19.2380   11.3140   32.6310 N.3     1  LIG1       -0.2152
      9  C         19.5350   11.6720   31.7590 C.3     1  LIG1        0.1075
     10  O         18.9690   10.4180   34.8510 O.3     1  LIG1       -0.3497
     11  C         19.6530   10.8140   35.9800 C.3     1  LIG1        0.1742
     12  N         16.2560    7.8300   33.5700 N.ar    1  LIG1       -0.3039
     13  C         16.2260    6.5110   33.8910 C.ar    1  LIG1        0.0618
     14  C         17.1550    5.4850   33.9130 C.ar    1  LIG1        0.0172
     15  C         15.0510    6.2730   34.5980 C.ar    1  LIG1        0.0174
     16  C         17.0390    4.4540   34.8110 C.ar    1  LIG1        0.0015
     17  C         15.9560    4.3390   35.6710 C.ar    1  LIG1        0.0001
     18  C         14.8910    5.1870   35.4090 C.ar    1  LIG1        0.0015
     19  C         14.2470    7.3880   34.3920 C.ar    1  LIG1        0.0229
     20  C         12.8600    7.4600   34.2750 C.ar    1  LIG1        0.0543
     21  C         15.0220    8.2110   33.5840 C.ar    1  LIG1        0.0795
     22  C         12.2320    8.5670   33.7140 C.ar    1  LIG1        0.0055
     23  C         11.7790    6.5860   34.6800 C.2     1  LIG1        0.2649
     24  C         13.0400    9.5460   33.1710 C.ar    1  LIG1        0.0184
     25  C         10.7760    8.3240   33.5960 C.3     1  LIG1        0.1420
     26  C         12.7850   10.7230   32.4810 C.ar    1  LIG1        0.0189
     27  C         14.3610    9.2600   32.9600 C.ar    1  LIG1        0.0968
     28  C         11.6160   11.3630   32.1500 C.ar    1  LIG1        0.0015
     29  C         13.9210   10.9780   31.7270 C.ar    1  LIG1        0.0813
     30  C         11.6320   12.2850   31.1150 C.ar    1  LIG1        0.0001
     31  C         12.7080   12.3520   30.2440 C.ar    1  LIG1        0.0015
     32  C         13.9440   11.9390   30.7290 C.ar    1  LIG1        0.0191
     33  N         14.8480   10.0130   31.9470 N.ar    1  LIG1       -0.2439
     34  N         10.6610    6.8990   33.8400 N.am    1  LIG1       -0.1968
     35  O         11.8500    5.5310   35.3390 O.2     1  LIG1       -0.2684
@<TRIPOS>BOND
     1    31    32   ar
     2    31    30   ar
     3    32    29   ar
     4    30    28   ar
     5    29    33   ar
     6    29    26   ar
     7     9     8    1
     8    33    27   ar
     9    28    26   ar
    10    26    24   ar
    11     1     8    1
    12     1     2    1
    13     1     7    1
    14     3     2    1
    15     3     4    1
    16     3    12    1
    17    27    24   ar
    18    27    21   ar
    19    24    22   ar
    20     4     5    1
    21    12    21   ar
    22    12    13   ar
    23    21    19   ar
    24    25    22    1
    25    25    34    1
    26    22    20   ar
    27    34    23   am
    28    13    14   ar
    29    13    15   ar
    30    14    16   ar
    31     7     5    1
    32     7    10    1
    33    20    19   ar
    34    20    23    1
    35     5     6    1
    36    19    15   ar
    37    15    18   ar
    38    23    35    2
    39    16    17   ar
    40    10    11    1
    41    18    17   ar
@<TRIPOS>MOLECULE
*****_MODEL10
 35 41 0 0 0
SMALL
GASTEIGER

@<TRIPOS>ATOM
      1  C         18.4420    9.9220   30.9000 C.3     1  LIG1        0.1067
      2  C         17.2960    9.4690   31.9600 C.3     1  LIG1        0.0738
      3  C         17.6210    7.8620   31.7230 C.3     1  LIG1        0.2060
      4  O         19.0140    7.9610   32.2820 O.3     1  LIG1       -0.3354
      5  C         19.4840    8.9540   32.8460 C.3     1  LIG1        0.1457
      6  C         21.0050    8.6780   32.8190 C.3     1  LIG1        0.0348
      7  C         19.5530   10.4020   32.1200 C.3     1  LIG1        0.1583
      8  N         17.8890   11.3680   30.7410 N.3     1  LIG1       -0.2152
      9  C         17.7650   11.5520   29.7790 C.3     1  LIG1        0.1075
     10  O         18.5430   11.0590   33.0400 O.3     1  LIG1       -0.3497
     11  C         18.9740   10.8380   34.3310 C.3     1  LIG1        0.1742
     12  N         16.9570    7.4280   33.0920 N.ar    1  LIG1       -0.3039
     13  C         17.3830    6.1960   33.4740 C.ar    1  LIG1        0.0618
     14  C         18.5090    5.4290   33.2310 C.ar    1  LIG1        0.0172
     15  C         16.6010    5.7920   34.5510 C.ar    1  LIG1        0.0174
     16  C         18.9630    4.5350   34.1670 C.ar    1  LIG1        0.0015
     17  C         18.2800    4.2920   35.3500 C.ar    1  LIG1        0.0001
     18  C         17.0020    4.8230   35.4250 C.ar    1  LIG1        0.0015
     19  C         15.5070    6.6490   34.5750 C.ar    1  LIG1        0.0229
     20  C         14.1890    6.3790   34.9360 C.ar    1  LIG1        0.0543
     21  C         15.7370    7.5090   33.5070 C.ar    1  LIG1        0.0795
     22  C         13.1440    7.2210   34.5670 C.ar    1  LIG1        0.0055
     23  C         13.5660    5.3430   35.7330 C.2     1  LIG1        0.2649
     24  C         13.4470    8.2750   33.7290 C.ar    1  LIG1        0.0184
     25  C         11.8460    6.6310   34.9680 C.3     1  LIG1        0.1420
     26  C         12.6820    9.2520   33.1060 C.ar    1  LIG1        0.0189
     27  C         14.6580    8.2780   33.0930 C.ar    1  LIG1        0.0968
     28  C         11.3430    9.5500   33.1620 C.ar    1  LIG1        0.0015
     29  C         13.4090    9.6570   31.9960 C.ar    1  LIG1        0.0813
     30  C         10.7840   10.2970   32.1370 C.ar    1  LIG1        0.0001
     31  C         11.4690   10.4910   30.9470 C.ar    1  LIG1        0.0015
     32  C         12.8580   10.4490   31.0010 C.ar    1  LIG1        0.0191
     33  N         14.5790    8.9750   31.9360 N.ar    1  LIG1       -0.2439
     34  N         12.1980    5.2670   35.3110 N.am    1  LIG1       -0.1968
     35  O         14.1210    4.4360   36.3830 O.2     1  LIG1       -0.2684
@<TRIPOS>BOND
     1     9     8    1
     2     8     1    1
     3     1     2    1
     4     1     7    1
     5    31    32   ar
     6    31    30   ar
     7    32    29   ar
     8     3     2    1
     9     3     4    1
    10     3    12    1
    11    33    29   ar
    12    33    27   ar
    13    29    26   ar
    14     7     5    1
    15     7    10    1
    16    30    28   ar
    17     4     5    1
    18     6     5    1
    19    10    11    1
    20    12    13   ar
    21    12    21   ar
    22    27    21   ar
    23    27    24   ar
    24    26    28   ar
    25    26    24   ar
    26    14    13   ar
    27    14    16   ar
    28    13    15   ar
    29    21    19   ar
    30    24    22   ar
    31    16    17   ar
    32    15    19   ar
    33    15    18   ar
    34    22    20   ar
    35    22    25    1
    36    19    20   ar
    37    20    23    1
    38    25    34    1
    39    34    23   am
    40    17    18   ar
    41    23    35    2
