
     RDKit          3D

 35 42  0  0  0  0  0  0  0  0999 V2000
   -3.1081   -2.9134    2.5205 C   0  0  0  0  0  0  0  0  0  0  0  0
   -3.1658   -1.9872    2.1820 N   0  0  0  0  0  0  0  0  0  0  0  0
   -2.9782   -2.0147    0.6374 C   0  0  2  0  0  0  0  0  0  0  0  0
   -1.3609   -1.8637    0.7091 C   0  0  0  0  0  0  0  0  0  0  0  0
   -1.1796   -2.3762   -0.8559 C   0  0  1  0  0  0  0  0  0  0  0  0
   -1.9128   -1.1953   -1.4313 O   0  0  0  0  0  0  0  0  0  0  0  0
   -2.2756   -0.2042   -0.7900 C   0  0  1  0  0  0  0  0  0  0  0  0
   -3.3138    0.4526   -1.7284 C   0  0  0  0  0  0  0  0  0  0  0  0
   -3.2521   -0.3237    0.4994 C   0  0  2  0  0  0  0  0  0  0  0  0
   -2.2021    0.1141    1.5011 O   0  0  0  0  0  0  0  0  0  0  0  0
   -2.8760    0.5769    2.6105 C   0  0  0  0  0  0  0  0  0  0  0  0
   -1.3380    0.8552   -0.5838 N   0  0  0  0  0  0  0  0  0  0  0  0
   -1.5574    2.1912   -0.6560 C   0  0  0  0  0  0  0  0  0  0  0  0
   -2.7679    2.8438   -0.4920 C   0  0  0  0  0  0  0  0  0  0  0  0
   -2.7104    4.1185    0.0597 C   0  0  0  0  0  0  0  0  0  0  0  0
   -1.5534    4.8507   -0.1598 C   0  0  0  0  0  0  0  0  0  0  0  0
   -0.3422    4.2116   -0.3765 C   0  0  0  0  0  0  0  0  0  0  0  0
   -0.3470    2.8688   -0.6596 C   0  0  0  0  0  0  0  0  0  0  0  0
    0.6376    1.8940   -0.5723 C   0  0  0  0  0  0  0  0  0  0  0  0
    1.9413    1.8965   -0.1164 C   0  0  0  0  0  0  0  0  0  0  0  0
    2.6149    0.6802   -0.1055 C   0  0  0  0  0  0  0  0  0  0  0  0
    2.0466   -0.4749   -0.6384 C   0  0  0  0  0  0  0  0  0  0  0  0
    2.3987   -1.8026   -0.4248 C   0  0  0  0  0  0  0  0  0  0  0  0
    3.6208   -2.4040   -0.3321 C   0  0  0  0  0  0  0  0  0  0  0  0
    3.7345   -3.7838   -0.4073 C   0  0  0  0  0  0  0  0  0  0  0  0
    2.5571   -4.4939   -0.2259 C   0  0  0  0  0  0  0  0  0  0  0  0
    1.3287   -3.8824   -0.2078 C   0  0  0  0  0  0  0  0  0  0  0  0
    1.2109   -2.5262   -0.4602 C   0  0  0  0  0  0  0  0  0  0  0  0
    0.2560   -1.7274   -1.0017 N   0  0  0  0  0  0  0  0  0  0  0  0
    0.6667   -0.5202   -0.7981 C   0  0  0  0  0  0  0  0  0  0  0  0
   -0.0016    0.6942   -0.7173 C   0  0  0  0  0  0  0  0  0  0  0  0
    3.9032    0.9746    0.4874 C   0  0  0  0  0  0  0  0  0  0  0  0
    4.8910    0.2233    0.5918 O   0  0  0  0  0  0  0  0  0  0  0  0
    3.7192    2.1296    1.3160 N   0  0  0  0  0  0  0  0  0  0  0  0
    2.7158    2.9182    0.6263 C   0  0  0  0  0  0  0  0  0  0  0  0
  1  2  1  0
  3  2  1  1
  3  4  1  0
  5  4  1  1
  5  6  1  0
  6  7  1  0
  7  8  1  6
  7  9  1  0
  9 10  1  1
 10 11  1  0
  7 12  1  0
 12 13  1  0
 13 14  2  0
 14 15  1  0
 15 16  2  0
 16 17  1  0
 17 18  2  0
 18 19  1  0
 19 20  2  0
 20 21  1  0
 21 22  2  0
 22 23  1  0
 23 24  2  0
 24 25  1  0
 25 26  2  0
 26 27  1  0
 27 28  2  0
 28 29  1  0
 29 30  1  0
 30 31  2  0
 21 32  1  0
 32 33  2  0
 32 34  1  0
 34 35  1  0
  9  3  1  0
 31 12  1  0
 29  5  1  0
 18 13  1  0
 31 19  1  0
 35 20  1  0
 30 22  1  0
 28 23  1  0
M  END
>  <zinc_id>  (1) 
ZINC000003814434

>  <smiles>  (1) 
CN[C@@H]1C[C@H]2O[C@@](C)([C@@H]1OC)n1c3ccccc3c3c4c(c5c6ccccc6n2c5c31)C(=O)NC4

$$$$
