@<TRIPOS>MOLECULE
*****_MODEL1
 28 31 0 0 0
SMALL
GASTEIGER

@<TRIPOS>ATOM
      1  N         16.5650    6.2240   33.1240 N.am    1  LIG1       -0.1621
      2  C         16.7230    7.6200   33.4050 C.2     1  LIG1        0.3275
      3  O         16.6060    8.0240   34.6000 O.2     1  LIG1       -0.2504
      4  N         17.6370    8.3530   32.5810 N.am    1  LIG1       -0.2597
      5  C         19.0520    8.1530   32.8800 C.3     1  LIG1        0.1124
      6  C         19.8470    8.5910   31.6750 C.3     1  LIG1        0.0957
      7  N         19.4060    7.8670   30.4850 N.3     1  LIG1       -0.2470
      8  C         17.9780    7.9350   30.1900 C.3     1  LIG1        0.0957
      9  C         17.2160    8.7080   31.2290 C.3     1  LIG1        0.1124
     10  C         15.7020    5.4750   33.9870 C.ar    1  LIG1        0.0779
     11  C         16.2920    5.0050   35.1530 C.ar    1  LIG1        0.0169
     12  C         15.5820    4.8200   36.3190 C.ar    1  LIG1        0.0044
     13  C         14.2560    5.1850   36.3430 C.ar    1  LIG1        0.0370
     14  C         13.6010    5.5530   35.1730 C.ar    1  LIG1        0.1400
     15  C         14.3850    5.9040   34.0860 C.ar    1  LIG1        0.0535
     16  O         12.3780    6.1990   35.3480 O.3     1  LIG1       -0.4714
     17  C         12.1100    7.3550   34.5580 C.3     1  LIG1        0.2525
     18  C         20.2510    7.9990   29.3350 C.3     1  LIG1        0.1997
     19  N         21.0470    7.0640   28.7610 N.3     1  LIG1       -0.1714
     20  C         22.1360    7.6150   28.2150 C.3     1  LIG1        0.1818
     21  N         21.8100    8.6460   27.3950 N.3     1  LIG1       -0.1386
     22  S         20.4750    9.2870   28.2240 S.3     1  LIG1       -0.0143
     23  C         23.4290    6.9260   28.0800 C.ar    1  LIG1        0.0109
     24  C         23.4710    5.5450   28.2250 C.ar    1  LIG1       -0.0015
     25  C         24.7270    4.9680   28.3630 C.ar    1  LIG1       -0.0002
     26  C         25.8430    5.7030   28.7040 C.ar    1  LIG1       -0.0000
     27  C         25.6990    7.0560   28.9310 C.ar    1  LIG1       -0.0002
     28  C         24.5250    7.6450   28.5430 C.ar    1  LIG1       -0.0015
@<TRIPOS>BOND
     1    21    20    1
     2    21    22    1
     3    23    20    1
     4    23    24   ar
     5    23    28   ar
     6    20    19    1
     7    22    18    1
     8    24    25   ar
     9    25    26   ar
    10    28    27   ar
    11    26    27   ar
    12    19    18    1
    13    18     7    1
    14     8     7    1
    15     8     9    1
    16     7     6    1
    17     9     4    1
    18     6     5    1
    19     4     5    1
    20     4     2   am
    21     1     2   am
    22     1    10    1
    23     2     3    2
    24    10    15   ar
    25    10    11   ar
    26    15    14   ar
    27    17    16    1
    28    11    12   ar
    29    14    16    1
    30    14    13   ar
    31    12    13   ar
@<TRIPOS>MOLECULE
*****_MODEL2
 28 31 0 0 0
SMALL
GASTEIGER

@<TRIPOS>ATOM
      1  N         16.7310    6.2360   33.1470 N.am    1  LIG1       -0.1621
      2  C         16.6640    7.6590   33.3040 C.2     1  LIG1        0.3275
      3  O         16.4010    8.1390   34.4460 O.2     1  LIG1       -0.2504
      4  N         17.5190    8.4500   32.4710 N.am    1  LIG1       -0.2597
      5  C         18.9230    8.4910   32.8720 C.3     1  LIG1        0.1124
      6  C         19.7320    8.9410   31.6820 C.3     1  LIG1        0.0957
      7  N         19.4910    8.0610   30.5410 N.3     1  LIG1       -0.2470
      8  C         18.0930    7.8880   30.1550 C.3     1  LIG1        0.0957
      9  C         17.1530    8.6210   31.0690 C.3     1  LIG1        0.1124
     10  C         15.9250    5.4400   34.0230 C.ar    1  LIG1        0.0779
     11  C         16.5440    5.0440   35.2010 C.ar    1  LIG1        0.0169
     12  C         15.8450    4.8290   36.3680 C.ar    1  LIG1        0.0044
     13  C         14.4940    5.0890   36.3790 C.ar    1  LIG1        0.0370
     14  C         13.8180    5.3800   35.2000 C.ar    1  LIG1        0.1400
     15  C         14.5780    5.7670   34.1070 C.ar    1  LIG1        0.0535
     16  O         12.5470    5.9320   35.3560 O.3     1  LIG1       -0.4714
     17  C         12.2220    7.0950   34.5980 C.3     1  LIG1        0.2525
     18  C         20.3900    8.2230   29.4360 C.3     1  LIG1        0.1997
     19  N         21.1380    7.2800   28.8130 N.3     1  LIG1       -0.1714
     20  C         22.2860    7.7880   28.3540 C.3     1  LIG1        0.1818
     21  N         22.0710    8.9050   27.6140 N.3     1  LIG1       -0.1386
     22  S         20.7530    9.5760   28.4480 S.3     1  LIG1       -0.0143
     23  C         23.5290    7.0160   28.2070 C.ar    1  LIG1        0.0109
     24  C         23.4630    5.6290   28.2240 C.ar    1  LIG1       -0.0015
     25  C         24.6650    4.9450   28.3570 C.ar    1  LIG1       -0.0002
     26  C         25.8150    5.5570   28.8090 C.ar    1  LIG1       -0.0000
     27  C         25.7610    6.8920   29.1550 C.ar    1  LIG1       -0.0002
     28  C         24.6530    7.6030   28.7780 C.ar    1  LIG1       -0.0015
@<TRIPOS>BOND
     1    21    20    1
     2    21    22    1
     3    23    24   ar
     4    23    20    1
     5    23    28   ar
     6    24    25   ar
     7    20    19    1
     8    25    26   ar
     9    22    18    1
    10    28    27   ar
    11    26    27   ar
    12    19    18    1
    13    18     7    1
    14     8     7    1
    15     8     9    1
    16     7     6    1
    17     9     4    1
    18     6     5    1
    19     4     5    1
    20     4     2   am
    21     1     2   am
    22     1    10    1
    23     2     3    2
    24    10    15   ar
    25    10    11   ar
    26    15    14   ar
    27    17    16    1
    28    14    16    1
    29    14    13   ar
    30    11    12   ar
    31    12    13   ar
@<TRIPOS>MOLECULE
*****_MODEL3
 28 31 0 0 0
SMALL
GASTEIGER

@<TRIPOS>ATOM
      1  N         16.7810    6.2580   33.1800 N.am    1  LIG1       -0.1621
      2  C         16.7080    7.6830   33.3040 C.2     1  LIG1        0.3275
      3  O         16.4670    8.1900   34.4400 O.2     1  LIG1       -0.2504
      4  N         17.5410    8.4590   32.4340 N.am    1  LIG1       -0.2597
      5  C         18.9520    8.5190   32.8040 C.3     1  LIG1        0.1124
      6  C         19.7330    8.9450   31.5860 C.3     1  LIG1        0.0957
      7  N         19.4730    8.0360   30.4720 N.3     1  LIG1       -0.2470
      8  C         18.0680    7.8450   30.1200 C.3     1  LIG1        0.0957
      9  C         17.1430    8.5950   31.0360 C.3     1  LIG1        0.1124
     10  C         15.9990    5.4790   34.0920 C.ar    1  LIG1        0.0779
     11  C         16.6170    5.1840   35.3000 C.ar    1  LIG1        0.0169
     12  C         15.9100    5.0070   36.4690 C.ar    1  LIG1        0.0044
     13  C         14.5480    5.2020   36.4450 C.ar    1  LIG1        0.0370
     14  C         13.8790    5.3880   35.2410 C.ar    1  LIG1        0.1400
     15  C         14.6370    5.7450   34.1380 C.ar    1  LIG1        0.0535
     16  O         12.5810    5.8870   35.3470 O.3     1  LIG1       -0.4714
     17  C         12.1850    6.9220   34.4510 C.3     1  LIG1        0.2525
     18  C         20.3480    8.1760   29.3450 C.3     1  LIG1        0.1997
     19  N         21.1180    7.2320   28.7530 N.3     1  LIG1       -0.1714
     20  C         22.2390    7.7570   28.2500 C.3     1  LIG1        0.1818
     21  N         21.9730    8.8300   27.4620 N.3     1  LIG1       -0.1386
     22  S         20.6460    9.4940   28.2880 S.3     1  LIG1       -0.0143
     23  C         23.5060    7.0230   28.1150 C.ar    1  LIG1        0.0109
     24  C         23.4960    5.6400   28.2430 C.ar    1  LIG1       -0.0015
     25  C         24.7290    5.0140   28.3830 C.ar    1  LIG1       -0.0002
     26  C         25.8690    5.7020   28.7420 C.ar    1  LIG1       -0.0000
     27  C         25.7740    7.0570   28.9860 C.ar    1  LIG1       -0.0002
     28  C         24.6250    7.6940   28.5970 C.ar    1  LIG1       -0.0015
@<TRIPOS>BOND
     1    21    20    1
     2    21    22    1
     3    23    24   ar
     4    23    20    1
     5    23    28   ar
     6    24    25   ar
     7    20    19    1
     8    22    18    1
     9    25    26   ar
    10    28    27   ar
    11    26    27   ar
    12    19    18    1
    13    18     7    1
    14     8     7    1
    15     8     9    1
    16     7     6    1
    17     9     4    1
    18     6     5    1
    19     4     5    1
    20     4     2   am
    21     1     2   am
    22     1    10    1
    23     2     3    2
    24    10    15   ar
    25    10    11   ar
    26    15    14   ar
    27    17    16    1
    28    14    16    1
    29    14    13   ar
    30    11    12   ar
    31    13    12   ar
@<TRIPOS>MOLECULE
*****_MODEL4
 28 31 0 0 0
SMALL
GASTEIGER

@<TRIPOS>ATOM
      1  N         16.1340    6.5490   32.8730 N.am    1  LIG1       -0.1621
      2  C         16.7790    7.6700   33.4890 C.2     1  LIG1        0.3275
      3  O         16.8070    7.7450   34.7530 O.2     1  LIG1       -0.2504
      4  N         17.8990    8.2400   32.8010 N.am    1  LIG1       -0.2597
      5  C         19.1480    7.4900   32.9040 C.3     1  LIG1        0.1124
      6  C         20.0530    7.9400   31.7850 C.3     1  LIG1        0.0957
      7  N         19.3890    7.7680   30.4940 N.3     1  LIG1       -0.2470
      8  C         18.0810    8.4040   30.3620 C.3     1  LIG1        0.0957
      9  C         17.6400    9.0750   31.6310 C.3     1  LIG1        0.1124
     10  C         15.0560    5.9370   33.5900 C.ar    1  LIG1        0.0779
     11  C         15.4260    5.2250   34.7230 C.ar    1  LIG1        0.0169
     12  C         14.5990    5.0920   35.8160 C.ar    1  LIG1        0.0044
     13  C         13.3920    5.7520   35.8070 C.ar    1  LIG1        0.0370
     14  C         12.9360    6.3810   34.6550 C.ar    1  LIG1        0.1400
     15  C         13.8660    6.6500   33.6640 C.ar    1  LIG1        0.0535
     16  O         11.8800    7.2740   34.8360 O.3     1  LIG1       -0.4714
     17  C         10.8860    7.3540   33.8170 C.3     1  LIG1        0.2525
     18  C         20.2320    7.9110   29.3440 C.3     1  LIG1        0.1997
     19  N         21.0070    6.9750   28.7440 N.3     1  LIG1       -0.1714
     20  C         22.1040    7.5170   28.2070 C.3     1  LIG1        0.1818
     21  N         21.7960    8.5730   27.4130 N.3     1  LIG1       -0.1386
     22  S         20.4760    9.2200   28.2630 S.3     1  LIG1       -0.0143
     23  C         23.3820    6.8060   28.0490 C.ar    1  LIG1        0.0109
     24  C         23.4480    5.4610   28.3900 C.ar    1  LIG1       -0.0015
     25  C         24.7150    4.9010   28.4890 C.ar    1  LIG1       -0.0002
     26  C         25.8540    5.6690   28.6100 C.ar    1  LIG1       -0.0000
     27  C         25.7240    7.0430   28.6500 C.ar    1  LIG1       -0.0002
     28  C         24.5130    7.5770   28.2950 C.ar    1  LIG1       -0.0015
@<TRIPOS>BOND
     1    21    20    1
     2    21    22    1
     3    23    20    1
     4    23    28   ar
     5    23    24   ar
     6    20    19    1
     7    22    18    1
     8    28    27   ar
     9    24    25   ar
    10    25    26   ar
    11    26    27   ar
    12    19    18    1
    13    18     7    1
    14     8     7    1
    15     8     9    1
    16     7     6    1
    17     9     4    1
    18     6     5    1
    19     4     5    1
    20     4     2   am
    21     1     2   am
    22     1    10    1
    23     2     3    2
    24    10    15   ar
    25    10    11   ar
    26    15    14   ar
    27    17    16    1
    28    14    16    1
    29    14    13   ar
    30    11    12   ar
    31    13    12   ar
@<TRIPOS>MOLECULE
*****_MODEL5
 28 31 0 0 0
SMALL
GASTEIGER

@<TRIPOS>ATOM
      1  N         15.8180    8.2160   32.9770 N.am    1  LIG1       -0.1621
      2  C         16.9520    8.6680   33.7270 C.2     1  LIG1        0.3275
      3  O         17.0000    8.4320   34.9710 O.2     1  LIG1       -0.2504
      4  N         18.2120    8.7090   33.0470 N.am    1  LIG1       -0.2597
      5  C         18.8710    7.4190   32.8650 C.3     1  LIG1        0.1124
      6  C         19.8910    7.5700   31.7650 C.3     1  LIG1        0.0957
      7  N         19.2540    8.0620   30.5450 N.3     1  LIG1       -0.2470
      8  C         18.4840    9.2950   30.6820 C.3     1  LIG1        0.0957
      9  C         18.4500    9.7940   32.0990 C.3     1  LIG1        0.1124
     10  C         14.5710    8.1110   33.6720 C.ar    1  LIG1        0.0779
     11  C         13.4660    8.5930   32.9830 C.ar    1  LIG1        0.0169
     12  C         12.2010    8.0790   33.1620 C.ar    1  LIG1        0.0044
     13  C         12.0450    7.0010   34.0030 C.ar    1  LIG1        0.0370
     14  C         13.1000    6.5610   34.7940 C.ar    1  LIG1        0.1400
     15  C         14.3760    6.9740   34.4440 C.ar    1  LIG1        0.0535
     16  O         12.9410    5.2950   35.3560 O.3     1  LIG1       -0.4714
     17  C         13.9620    4.8140   36.2270 C.3     1  LIG1        0.2525
     18  C         20.0590    7.9990   29.3610 C.3     1  LIG1        0.1997
     19  N         20.8710    6.9970   28.9460 N.3     1  LIG1       -0.1714
     20  C         21.9220    7.4670   28.2660 C.3     1  LIG1        0.1818
     21  N         21.5340    8.3120   27.2780 N.3     1  LIG1       -0.1386
     22  S         20.2000    9.0580   28.0190 S.3     1  LIG1       -0.0143
     23  C         23.2350    6.8060   28.2160 C.ar    1  LIG1        0.0109
     24  C         23.2880    5.4180   28.2240 C.ar    1  LIG1       -0.0015
     25  C         24.5290    4.8390   28.4520 C.ar    1  LIG1       -0.0002
     26  C         25.5830    5.5430   28.9970 C.ar    1  LIG1       -0.0000
     27  C         25.3870    6.8640   29.3420 C.ar    1  LIG1       -0.0002
     28  C         24.2540    7.4810   28.8780 C.ar    1  LIG1       -0.0015
@<TRIPOS>BOND
     1    21    22    1
     2    21    20    1
     3    22    18    1
     4    23    24   ar
     5    23    20    1
     6    23    28   ar
     7    24    25   ar
     8    20    19    1
     9    25    26   ar
    10    28    27   ar
    11    19    18    1
    12    26    27   ar
    13    18     7    1
    14     7     8    1
    15     7     6    1
    16     8     9    1
    17     6     5    1
    18     9     4    1
    19     5     4    1
    20     1    10    1
    21     1     2   am
    22    11    12   ar
    23    11    10   ar
    24     4     2   am
    25    12    13   ar
    26    10    15   ar
    27     2     3    2
    28    13    14   ar
    29    15    14   ar
    30    14    16    1
    31    16    17    1
@<TRIPOS>MOLECULE
*****_MODEL6
 28 31 0 0 0
SMALL
GASTEIGER

@<TRIPOS>ATOM
      1  N         15.8040    8.2200   32.9600 N.am    1  LIG1       -0.1621
      2  C         16.9380    8.6260   33.7370 C.2     1  LIG1        0.3275
      3  O         16.9710    8.3420   34.9710 O.2     1  LIG1       -0.2504
      4  N         18.2040    8.6750   33.0700 N.am    1  LIG1       -0.2597
      5  C         18.8460    7.3830   32.8440 C.3     1  LIG1        0.1124
      6  C         19.8780    7.5610   31.7590 C.3     1  LIG1        0.0957
      7  N         19.2600    8.1090   30.5540 N.3     1  LIG1       -0.2470
      8  C         18.5060    9.3480   30.7320 C.3     1  LIG1        0.0957
      9  C         18.4670    9.7920   32.1670 C.3     1  LIG1        0.1124
     10  C         14.5490    8.1070   33.6400 C.ar    1  LIG1        0.0779
     11  C         13.4470    8.5590   32.9270 C.ar    1  LIG1        0.0169
     12  C         12.1870    8.0270   33.0990 C.ar    1  LIG1        0.0044
     13  C         12.0370    6.9620   33.9560 C.ar    1  LIG1        0.0370
     14  C         13.0880    6.5520   34.7680 C.ar    1  LIG1        0.1400
     15  C         14.3610    6.9800   34.4290 C.ar    1  LIG1        0.0535
     16  O         12.9410    5.2940   35.3500 O.3     1  LIG1       -0.4714
     17  C         13.9940    4.8120   36.1820 C.3     1  LIG1        0.2525
     18  C         20.0750    8.0800   29.3750 C.3     1  LIG1        0.1997
     19  N         20.8480    7.0700   28.9090 N.3     1  LIG1       -0.1714
     20  C         21.9250    7.5320   28.2670 C.3     1  LIG1        0.1818
     21  N         21.5850    8.4490   27.3270 N.3     1  LIG1       -0.1386
     22  S         20.2770    9.2080   28.0990 S.3     1  LIG1       -0.0143
     23  C         23.2090    6.8180   28.1910 C.ar    1  LIG1        0.0109
     24  C         23.2070    5.4300   28.2220 C.ar    1  LIG1       -0.0015
     25  C         24.4310    4.8050   28.4230 C.ar    1  LIG1       -0.0002
     26  C         25.5280    5.4750   28.9230 C.ar    1  LIG1       -0.0000
     27  C         25.3940    6.8090   29.2510 C.ar    1  LIG1       -0.0002
     28  C         24.2740    7.4630   28.8100 C.ar    1  LIG1       -0.0015
@<TRIPOS>BOND
     1    21    22    1
     2    21    20    1
     3    22    18    1
     4    23    24   ar
     5    23    20    1
     6    23    28   ar
     7    24    25   ar
     8    20    19    1
     9    25    26   ar
    10    28    27   ar
    11    19    18    1
    12    26    27   ar
    13    18     7    1
    14     7     8    1
    15     7     6    1
    16     8     9    1
    17     6     5    1
    18     9     4    1
    19     5     4    1
    20    11    12   ar
    21    11    10   ar
    22     1    10    1
    23     1     2   am
    24     4     2   am
    25    12    13   ar
    26    10    15   ar
    27     2     3    2
    28    13    14   ar
    29    15    14   ar
    30    14    16    1
    31    16    17    1
@<TRIPOS>MOLECULE
*****_MODEL7
 28 31 0 0 0
SMALL
GASTEIGER

@<TRIPOS>ATOM
      1  N         23.5520    7.8110   29.7880 N.am    1  LIG1       -0.1621
      2  C         22.9010    8.3390   28.6260 C.2     1  LIG1        0.3275
      3  O         23.3590    8.0510   27.4810 O.2     1  LIG1       -0.2504
      4  N         21.4850    8.5390   28.7040 N.am    1  LIG1       -0.2597
      5  C         20.6720    7.3320   28.5860 C.3     1  LIG1        0.1124
      6  C         19.3060    7.6360   29.1470 C.3     1  LIG1        0.0957
      7  N         19.4160    8.1180   30.5220 N.3     1  LIG1       -0.2470
      8  C         20.3040    9.2600   30.7280 C.3     1  LIG1        0.0957
      9  C         20.9900    9.6850   29.4610 C.3     1  LIG1        0.1124
     10  C         24.9570    7.5480   29.6910 C.ar    1  LIG1        0.0779
     11  C         25.2970    6.3900   29.0060 C.ar    1  LIG1        0.0169
     12  C         26.4760    6.2640   28.3050 C.ar    1  LIG1        0.0044
     13  C         27.3090    7.3560   28.2250 C.ar    1  LIG1        0.0370
     14  C         27.0620    8.4930   28.9840 C.ar    1  LIG1        0.1400
     15  C         25.7900    8.6450   29.5120 C.ar    1  LIG1        0.0535
     16  O         27.7630    9.6360   28.6000 O.3     1  LIG1       -0.4714
     17  C         27.6090   10.8150   29.3860 C.3     1  LIG1        0.2525
     18  C         18.1840    8.1930   31.2500 C.3     1  LIG1        0.1997
     19  N         17.9850    8.0760   32.5860 N.3     1  LIG1       -0.1714
     20  C         16.7980    7.5260   32.8590 C.3     1  LIG1        0.1818
     21  N         15.7950    8.1620   32.2020 N.3     1  LIG1       -0.1386
     22  S         16.5850    8.5640   30.7540 S.3     1  LIG1       -0.0143
     23  C         16.5180    6.7210   34.0580 C.ar    1  LIG1        0.0109
     24  C         17.3850    5.6870   34.3880 C.ar    1  LIG1       -0.0015
     25  C         16.9500    4.7870   35.3520 C.ar    1  LIG1       -0.0002
     26  C         15.6230    4.6760   35.7110 C.ar    1  LIG1       -0.0000
     27  C         14.6970    5.4790   35.0770 C.ar    1  LIG1       -0.0002
     28  C         15.1690    6.5250   34.3280 C.ar    1  LIG1       -0.0015
@<TRIPOS>BOND
     1     3     2    2
     2    13    12   ar
     3    13    14   ar
     4    12    11   ar
     5     5     4    1
     6     5     6    1
     7    16    14    1
     8    16    17    1
     9     2     4   am
    10     2     1   am
    11     4     9    1
    12    14    15   ar
    13    11    10   ar
    14     6     7    1
    15     9     8    1
    16    15    10   ar
    17    10     1    1
    18     7     8    1
    19     7    18    1
    20    22    18    1
    21    22    21    1
    22    18    19    1
    23    21    20    1
    24    19    20    1
    25    20    23    1
    26    23    28   ar
    27    23    24   ar
    28    28    27   ar
    29    24    25   ar
    30    27    26   ar
    31    25    26   ar
@<TRIPOS>MOLECULE
*****_MODEL8
 28 31 0 0 0
SMALL
GASTEIGER

@<TRIPOS>ATOM
      1  N         10.2610   12.9140   32.7760 N.am    1  LIG1       -0.1621
      2  C         11.0930   12.5110   31.6810 C.2     1  LIG1        0.3275
      3  O         11.7200   13.3970   31.0270 O.2     1  LIG1       -0.2504
      4  N         11.7320   11.2340   31.7810 N.am    1  LIG1       -0.2597
      5  C         12.8980   11.1810   32.6590 C.3     1  LIG1        0.1124
      6  C         13.1460    9.7370   33.0140 C.3     1  LIG1        0.0957
      7  N         11.9510    9.1480   33.6160 N.3     1  LIG1       -0.2470
      8  C         10.7220    9.2640   32.8350 C.3     1  LIG1        0.0957
      9  C         10.9240   10.0380   31.5630 C.3     1  LIG1        0.1124
     10  C          9.6730   14.2180   32.7090 C.ar    1  LIG1        0.0779
     11  C          9.3190   14.6430   31.4360 C.ar    1  LIG1        0.0169
     12  C          8.2690   15.5050   31.2090 C.ar    1  LIG1        0.0044
     13  C          7.5020   15.8990   32.2820 C.ar    1  LIG1        0.0370
     14  C          7.8870   15.5870   33.5800 C.ar    1  LIG1        0.1400
     15  C          8.8210   14.5770   33.7450 C.ar    1  LIG1        0.0535
     16  O          6.9010   15.7470   34.5540 O.3     1  LIG1       -0.4714
     17  C          5.7240   16.4720   34.2040 C.3     1  LIG1        0.2525
     18  C         12.1380    7.8680   34.2320 C.3     1  LIG1        0.1997
     19  N         13.2130    7.4120   34.9190 N.3     1  LIG1       -0.1714
     20  C         13.3720    6.0940   34.7630 C.3     1  LIG1        0.1818
     21  N         12.2220    5.4230   35.0230 N.3     1  LIG1       -0.1386
     22  S         11.0800    6.5340   34.4360 S.3     1  LIG1       -0.0143
     23  C         14.6720    5.4070   34.8200 C.ar    1  LIG1        0.0109
     24  C         15.1890    5.0510   36.0590 C.ar    1  LIG1       -0.0015
     25  C         16.5210    4.6600   36.0940 C.ar    1  LIG1       -0.0002
     26  C         17.3990    4.9390   35.0680 C.ar    1  LIG1       -0.0000
     27  C         16.9380    5.6490   33.9780 C.ar    1  LIG1       -0.0002
     28  C         15.5820    5.7980   33.8440 C.ar    1  LIG1       -0.0015
@<TRIPOS>BOND
     1     3     2    2
     2    12    11   ar
     3    12    13   ar
     4    11    10   ar
     5     9     4    1
     6     9     8    1
     7     2     4   am
     8     2     1   am
     9     4     5    1
    10    13    14   ar
    11     5     6    1
    12    10     1    1
    13    10    15   ar
    14     8     7    1
    15     6     7    1
    16    14    15   ar
    17    14    16    1
    18     7    18    1
    19    28    27   ar
    20    28    23   ar
    21    27    26   ar
    22    17    16    1
    23    18    22    1
    24    18    19    1
    25    22    21    1
    26    20    23    1
    27    20    19    1
    28    20    21    1
    29    23    24   ar
    30    26    25   ar
    31    24    25   ar
@<TRIPOS>MOLECULE
*****_MODEL9
 28 31 0 0 0
SMALL
GASTEIGER

@<TRIPOS>ATOM
      1  N         17.2870    8.3700   32.4050 N.am    1  LIG1       -0.1621
      2  C         17.7620    9.7220   32.4350 C.2     1  LIG1        0.3275
      3  O         17.6140   10.4020   33.4930 O.2     1  LIG1       -0.2504
      4  N         18.9210   10.0260   31.6500 N.am    1  LIG1       -0.2597
      5  C         20.1940    9.5880   32.2140 C.3     1  LIG1        0.1124
      6  C         21.2080    9.5510   31.0980 C.3     1  LIG1        0.0957
      7  N         20.7390    8.6930   30.0120 N.3     1  LIG1       -0.2470
      8  C         19.4180    9.0110   29.4750 C.3     1  LIG1        0.0957
      9  C         18.7630   10.1490   30.2040 C.3     1  LIG1        0.1124
     10  C         16.1690    8.0490   33.2390 C.ar    1  LIG1        0.0779
     11  C         14.9220    8.2960   32.6800 C.ar    1  LIG1        0.0169
     12  C         13.8060    7.5570   33.0050 C.ar    1  LIG1        0.0044
     13  C         13.9540    6.4900   33.8610 C.ar    1  LIG1        0.0370
     14  C         15.1550    6.2770   34.5260 C.ar    1  LIG1        0.1400
     15  C         16.2820    6.9140   34.0310 C.ar    1  LIG1        0.0535
     16  O         15.3040    5.0180   35.1070 O.3     1  LIG1       -0.4714
     17  C         14.7730    4.8140   36.4140 C.3     1  LIG1        0.2525
     18  C         21.7170    8.3690   29.0160 C.3     1  LIG1        0.1997
     19  N         22.6960    7.4340   29.0690 N.3     1  LIG1       -0.1714
     20  C         23.7750    7.8140   28.3770 C.3     1  LIG1        0.1818
     21  N         23.4450    8.2010   27.1190 N.3     1  LIG1       -0.1386
     22  S         21.9350    8.9220   27.4070 S.3     1  LIG1       -0.0143
     23  C         25.1490    7.4000   28.7000 C.ar    1  LIG1        0.0109
     24  C         25.8030    6.5220   27.8460 C.ar    1  LIG1       -0.0015
     25  C         26.9770    5.9460   28.3160 C.ar    1  LIG1       -0.0002
     26  C         27.3070    5.9340   29.6550 C.ar    1  LIG1       -0.0000
     27  C         26.4300    6.5000   30.5580 C.ar    1  LIG1       -0.0002
     28  C         25.4190    7.2790   30.0590 C.ar    1  LIG1       -0.0015
@<TRIPOS>BOND
     1    21    22    1
     2    21    20    1
     3    22    18    1
     4    24    25   ar
     5    24    23   ar
     6    25    26   ar
     7    20    23    1
     8    20    19    1
     9    23    28   ar
    10    18    19    1
    11    18     7    1
    12     8     7    1
    13     8     9    1
    14    26    27   ar
    15     7     6    1
    16    28    27   ar
    17     9     4    1
    18     6     5    1
    19     4     5    1
    20     4     2   am
    21     1     2   am
    22     1    10    1
    23     2     3    2
    24    11    12   ar
    25    11    10   ar
    26    12    13   ar
    27    10    15   ar
    28    13    14   ar
    29    15    14   ar
    30    14    16    1
    31    16    17    1
@<TRIPOS>MOLECULE
*****_MODEL10
 28 31 0 0 0
SMALL
GASTEIGER

@<TRIPOS>ATOM
      1  N         22.9060    8.1890   30.5650 N.am    1  LIG1       -0.1621
      2  C         21.9520    9.2200   30.8480 C.2     1  LIG1        0.3275
      3  O         21.7850   10.1520   30.0070 O.2     1  LIG1       -0.2504
      4  N         20.7980    8.8510   31.6130 N.am    1  LIG1       -0.2597
      5  C         19.7650    8.1240   30.8810 C.3     1  LIG1        0.1124
      6  C         18.8890    7.4230   31.8890 C.3     1  LIG1        0.0957
      7  N         19.6940    6.5590   32.7490 N.3     1  LIG1       -0.2470
      8  C         20.8160    7.2030   33.4280 C.3     1  LIG1        0.0957
      9  C         20.9570    8.6510   33.0500 C.3     1  LIG1        0.1124
     10  C         24.0260    8.5400   29.7460 C.ar    1  LIG1        0.0779
     11  C         24.8560    9.5250   30.2660 C.ar    1  LIG1        0.0169
     12  C         26.2040    9.5790   29.9880 C.ar    1  LIG1        0.0044
     13  C         26.7560    8.5750   29.2260 C.ar    1  LIG1        0.0370
     14  C         25.9470    7.6370   28.5970 C.ar    1  LIG1        0.1400
     15  C         24.6450    7.5080   29.0520 C.ar    1  LIG1        0.0535
     16  O         26.6020    6.5000   28.1250 O.3     1  LIG1       -0.4714
     17  C         27.1900    5.6180   29.0790 C.3     1  LIG1        0.2525
     18  C         18.9560    5.6460   33.5700 C.3     1  LIG1        0.1997
     19  N         17.6910    5.1910   33.3980 N.3     1  LIG1       -0.1714
     20  C         17.0920    4.9530   34.5690 C.3     1  LIG1        0.1818
     21  N         17.8590    4.1700   35.3680 N.3     1  LIG1       -0.1386
     22  S         19.4070    4.7260   34.9460 S.3     1  LIG1       -0.0143
     23  C         15.6410    5.0580   34.7900 C.ar    1  LIG1        0.0109
     24  C         14.9100    5.9600   34.0270 C.ar    1  LIG1       -0.0015
     25  C         13.6120    6.2270   34.4440 C.ar    1  LIG1       -0.0002
     26  C         13.1690    5.9250   35.7150 C.ar    1  LIG1       -0.0000
     27  C         14.0550    5.3540   36.6050 C.ar    1  LIG1       -0.0002
     28  C         15.2340    4.8680   36.1050 C.ar    1  LIG1       -0.0015
@<TRIPOS>BOND
     1    16    14    1
     2    16    17    1
     3    14    15   ar
     4    14    13   ar
     5    15    10   ar
     6    13    12   ar
     7    10    11   ar
     8    10     1    1
     9    12    11   ar
    10     3     2    2
    11     1     2   am
    12     2     4   am
    13     5     4    1
    14     5     6    1
    15     4     9    1
    16     6     7    1
    17     7     8    1
    18     7    18    1
    19     9     8    1
    20    19    18    1
    21    19    20    1
    22    18    22    1
    23    24    25   ar
    24    24    23   ar
    25    25    26   ar
    26    20    23    1
    27    20    21    1
    28    23    28   ar
    29    22    21    1
    30    26    27   ar
    31    28    27   ar
