MODEL 1
REMARK NAME *****_MODEL1
REMARK  3 active torsions:
REMARK  status: ('A' for Active; 'I' for Inactive)
REMARK    1  A    between atoms: C_5  and  N_8 
REMARK       I    between atoms: N_8  and  C_9 
REMARK    2  A    between atoms: C_9  and  C_11 
REMARK    3  A    between atoms: N_14  and  C_17 
ROOT
ATOM      1  C   LIG d   1      14.678   5.292  34.759  0.00  0.00     0.085 C 
ATOM      2  C   LIG d   1      15.911   4.554  35.360  0.00  0.00     0.034 C 
ATOM      3  C   LIG d   1      17.071   4.497  34.334  0.00  0.00     0.120 C 
ATOM      4  N   LIG d   1      17.410   5.848  33.917  0.00  0.00    -0.183 N 
ATOM      5  C   LIG d   1      16.332   6.598  33.288  0.00  0.00     0.120 C 
ATOM      6  C   LIG d   1      15.116   6.701  34.248  0.00  0.00     0.034 C 
ENDROOT
BRANCH   1   7
ATOM      7  C   LIG d   1      13.541   5.374  35.725  0.00  0.00     0.255 C 
ATOM      8  N   LIG d   1      12.565   6.328  35.752  0.00  0.00    -0.212 NA
ATOM      9  O   LIG d   1      13.467   4.519  36.637  0.00  0.00    -0.270 OA
BRANCH   8  10
ATOM     10  C   LIG d   1      12.248   7.259  34.805  0.00  0.00     0.086 A 
ATOM     11  C   LIG d   1      12.790   8.564  34.800  0.00  0.00     0.049 A 
ATOM     12  C   LIG d   1      12.468   9.486  33.788  0.00  0.00     0.138 A 
ATOM     13  C   LIG d   1      11.599   9.117  32.734  0.00  0.00     0.006 A 
ATOM     14  F   LIG d   1      12.999  10.679  33.854  0.00  0.00    -0.204 F 
ATOM     15  C   LIG d   1      11.226  10.075  31.660  0.00  0.00     0.033 C 
ATOM     16  C   LIG d   1      11.068   7.806  32.729  0.00  0.00    -0.001 A 
ATOM     17  C   LIG d   1      11.398   6.885  33.744  0.00  0.00     0.019 A 
ENDBRANCH   8  10
ENDBRANCH   1   7
BRANCH   4  18
ATOM     18  C   LIG d   1      18.655   6.400  34.167  0.00  0.00     0.727 A 
ATOM     19  N   LIG d   1      19.077   7.535  33.539  0.00  0.00    -0.060 NA
ATOM     20  C   LIG d   1      20.303   8.082  33.732  0.00  0.00     0.120 A 
ATOM     21  C   LIG d   1      21.201   7.467  34.620  0.00  0.00     0.043 A 
ATOM     22  C   LIG d   1      20.771   6.305  35.279  0.00  0.00     0.120 A 
ATOM     23  N   LIG d   1      19.529   5.816  35.036  0.00  0.00    -0.060 NA
ENDBRANCH   4  18
TORSDOF 3
ENDMDL
MODEL 2
REMARK NAME *****_MODEL2
REMARK  3 active torsions:
REMARK  status: ('A' for Active; 'I' for Inactive)
REMARK    1  A    between atoms: C_5  and  N_8 
REMARK       I    between atoms: N_8  and  C_9 
REMARK    2  A    between atoms: C_9  and  C_11 
REMARK    3  A    between atoms: N_14  and  C_17 
ROOT
ATOM      1  C   LIG d   1      26.510  10.527  30.381  0.00  0.00     0.085 C 
ATOM      2  C   LIG d   1      25.315  11.268  29.709  0.00  0.00     0.034 C 
ATOM      3  C   LIG d   1      24.265  11.691  30.768  0.00  0.00     0.120 C 
ATOM      4  N   LIG d   1      24.907  12.521  31.775  0.00  0.00    -0.183 N 
ATOM      5  C   LIG d   1      26.002  11.891  32.500  0.00  0.00     0.120 C 
ATOM      6  C   LIG d   1      27.105  11.425  31.512  0.00  0.00     0.034 C 
ENDROOT
BRANCH   1   7
ATOM      7  C   LIG d   1      27.547  10.111  29.390  0.00  0.00     0.255 C 
ATOM      8  N   LIG d   1      27.656   8.887  28.795  0.00  0.00    -0.212 NA
ATOM      9  O   LIG d   1      28.442  10.929  29.079  0.00  0.00    -0.270 OA
BRANCH   8  10
ATOM     10  C   LIG d   1      26.753   7.864  28.762  0.00  0.00     0.086 A 
ATOM     11  C   LIG d   1      25.399   8.048  28.404  0.00  0.00     0.049 A 
ATOM     12  C   LIG d   1      24.504   6.964  28.346  0.00  0.00     0.138 A 
ATOM     13  C   LIG d   1      24.949   5.651  28.631  0.00  0.00     0.006 A 
ATOM     14  F   LIG d   1      23.262   7.211  28.017  0.00  0.00    -0.204 F 
ATOM     15  C   LIG d   1      24.024   4.490  28.594  0.00  0.00     0.033 C 
ATOM     16  C   LIG d   1      26.309   5.464  28.974  0.00  0.00    -0.001 A 
ATOM     17  C   LIG d   1      27.202   6.554  29.026  0.00  0.00     0.019 A 
ENDBRANCH   8  10
ENDBRANCH   1   7
BRANCH   4  18
ATOM     18  C   LIG d   1      24.541  13.841  31.976  0.00  0.00     0.727 A 
ATOM     19  N   LIG d   1      23.450  14.178  32.722  0.00  0.00    -0.060 NA
ATOM     20  C   LIG d   1      23.042  15.458  32.910  0.00  0.00     0.120 A 
ATOM     21  C   LIG d   1      23.764  16.507  32.318  0.00  0.00     0.043 A 
ATOM     22  C   LIG d   1      24.896  16.170  31.559  0.00  0.00     0.120 A 
ATOM     23  N   LIG d   1      25.244  14.866  31.415  0.00  0.00    -0.060 NA
ENDBRANCH   4  18
TORSDOF 3
ENDMDL
MODEL 3
REMARK NAME *****_MODEL3
REMARK  3 active torsions:
REMARK  status: ('A' for Active; 'I' for Inactive)
REMARK    1  A    between atoms: C_5  and  N_8 
REMARK       I    between atoms: N_8  and  C_9 
REMARK    2  A    between atoms: C_9  and  C_11 
REMARK    3  A    between atoms: N_14  and  C_17 
ROOT
ATOM      1  C   LIG d   1      26.587  10.501  30.381  0.00  0.00     0.085 C 
ATOM      2  C   LIG d   1      25.327  11.168  29.752  0.00  0.00     0.034 C 
ATOM      3  C   LIG d   1      24.316  11.580  30.852  0.00  0.00     0.120 C 
ATOM      4  N   LIG d   1      24.972  12.469  31.798  0.00  0.00    -0.183 N 
ATOM      5  C   LIG d   1      26.130  11.910  32.482  0.00  0.00     0.120 C 
ATOM      6  C   LIG d   1      27.200  11.460  31.451  0.00  0.00     0.034 C 
ENDROOT
BRANCH   1   7
ATOM      7  C   LIG d   1      27.588  10.098  29.349  0.00  0.00     0.255 C 
ATOM      8  N   LIG d   1      27.673   8.883  28.731  0.00  0.00    -0.212 NA
ATOM      9  O   LIG d   1      28.476  10.918  29.021  0.00  0.00    -0.270 OA
BRANCH   8  10
ATOM     10  C   LIG d   1      26.765   7.864  28.712  0.00  0.00     0.086 A 
ATOM     11  C   LIG d   1      25.413   8.049  28.346  0.00  0.00     0.049 A 
ATOM     12  C   LIG d   1      24.512   6.968  28.303  0.00  0.00     0.138 A 
ATOM     13  C   LIG d   1      24.951   5.658  28.611  0.00  0.00     0.006 A 
ATOM     14  F   LIG d   1      23.273   7.216  27.966  0.00  0.00    -0.204 F 
ATOM     15  C   LIG d   1      24.020   4.500  28.590  0.00  0.00     0.033 C 
ATOM     16  C   LIG d   1      26.309   5.470  28.961  0.00  0.00    -0.001 A 
ATOM     17  C   LIG d   1      27.207   6.556  28.999  0.00  0.00     0.019 A 
ENDBRANCH   8  10
ENDBRANCH   1   7
BRANCH   4  18
ATOM     18  C   LIG d   1      24.559  13.778  31.979  0.00  0.00     0.727 A 
ATOM     19  N   LIG d   1      25.260  14.830  31.465  0.00  0.00    -0.060 NA
ATOM     20  C   LIG d   1      24.905  16.125  31.654  0.00  0.00     0.120 A 
ATOM     21  C   LIG d   1      23.760  16.424  32.411  0.00  0.00     0.043 A 
ATOM     22  C   LIG d   1      23.027  15.347  32.933  0.00  0.00     0.120 A 
ATOM     23  N   LIG d   1      23.443  14.077  32.703  0.00  0.00    -0.060 NA
ENDBRANCH   4  18
TORSDOF 3
ENDMDL
MODEL 4
REMARK NAME *****_MODEL4
REMARK  3 active torsions:
REMARK  status: ('A' for Active; 'I' for Inactive)
REMARK    1  A    between atoms: C_5  and  N_8 
REMARK       I    between atoms: N_8  and  C_9 
REMARK    2  A    between atoms: C_9  and  C_11 
REMARK    3  A    between atoms: N_14  and  C_17 
ROOT
ATOM      1  C   LIG d   1      13.809   6.197  34.082  0.00  0.00     0.085 C 
ATOM      2  C   LIG d   1      15.019   6.097  33.107  0.00  0.00     0.034 C 
ATOM      3  C   LIG d   1      14.905   7.155  31.980  0.00  0.00     0.120 C 
ATOM      4  N   LIG d   1      14.807   8.479  32.572  0.00  0.00    -0.183 N 
ATOM      5  C   LIG d   1      13.668   8.686  33.456  0.00  0.00     0.120 C 
ATOM      6  C   LIG d   1      13.696   7.659  34.621  0.00  0.00     0.034 C 
ENDROOT
BRANCH   1   7
ATOM      7  C   LIG d   1      13.890   5.196  35.188  0.00  0.00     0.255 C 
ATOM      8  N   LIG d   1      15.024   4.610  35.672  0.00  0.00    -0.212 NA
ATOM      9  O   LIG d   1      12.826   4.805  35.722  0.00  0.00    -0.270 OA
BRANCH   8  10
ATOM     10  C   LIG d   1      16.328   4.953  35.455  0.00  0.00     0.086 A 
ATOM     11  C   LIG d   1      17.273   4.061  34.901  0.00  0.00     0.049 A 
ATOM     12  C   LIG d   1      18.600   4.460  34.658  0.00  0.00     0.138 A 
ATOM     13  C   LIG d   1      19.015   5.782  34.949  0.00  0.00     0.006 A 
ATOM     14  F   LIG d   1      19.423   3.578  34.154  0.00  0.00    -0.204 F 
ATOM     15  C   LIG d   1      20.414   6.228  34.719  0.00  0.00     0.033 C 
ATOM     16  C   LIG d   1      18.065   6.681  35.488  0.00  0.00    -0.001 A 
ATOM     17  C   LIG d   1      16.735   6.275  35.726  0.00  0.00     0.019 A 
ENDBRANCH   8  10
ENDBRANCH   1   7
BRANCH   4  18
ATOM     18  C   LIG d   1      15.771   9.449  32.359  0.00  0.00     0.727 A 
ATOM     19  N   LIG d   1      16.203   9.769  31.105  0.00  0.00    -0.060 NA
ATOM     20  C   LIG d   1      17.171  10.688  30.863  0.00  0.00     0.120 A 
ATOM     21  C   LIG d   1      17.773  11.358  31.940  0.00  0.00     0.043 A 
ATOM     22  C   LIG d   1      17.327  11.043  33.233  0.00  0.00     0.120 A 
ATOM     23  N   LIG d   1      16.353  10.113  33.399  0.00  0.00    -0.060 NA
ENDBRANCH   4  18
TORSDOF 3
ENDMDL
MODEL 5
REMARK NAME *****_MODEL5
REMARK  3 active torsions:
REMARK  status: ('A' for Active; 'I' for Inactive)
REMARK    1  A    between atoms: C_5  and  N_8 
REMARK       I    between atoms: N_8  and  C_9 
REMARK    2  A    between atoms: C_9  and  C_11 
REMARK    3  A    between atoms: N_14  and  C_17 
ROOT
ATOM      1  C   LIG d   1      13.811   6.181  34.067  0.00  0.00     0.085 C 
ATOM      2  C   LIG d   1      15.143   6.267  33.264  0.00  0.00     0.034 C 
ATOM      3  C   LIG d   1      15.030   7.308  32.122  0.00  0.00     0.120 C 
ATOM      4  N   LIG d   1      14.662   8.598  32.682  0.00  0.00    -0.183 N 
ATOM      5  C   LIG d   1      13.397   8.630  33.403  0.00  0.00     0.120 C 
ATOM      6  C   LIG d   1      13.417   7.606  34.571  0.00  0.00     0.034 C 
ENDROOT
BRANCH   1   7
ATOM      7  C   LIG d   1      13.886   5.192  35.184  0.00  0.00     0.255 C 
ATOM      8  N   LIG d   1      15.018   4.606  35.675  0.00  0.00    -0.212 NA
ATOM      9  O   LIG d   1      12.821   4.812  35.722  0.00  0.00    -0.270 OA
BRANCH   8  10
ATOM     10  C   LIG d   1      16.323   4.940  35.454  0.00  0.00     0.086 A 
ATOM     11  C   LIG d   1      17.229   4.089  34.784  0.00  0.00     0.049 A 
ATOM     12  C   LIG d   1      18.559   4.480  34.543  0.00  0.00     0.138 A 
ATOM     13  C   LIG d   1      19.016   5.755  34.956  0.00  0.00     0.006 A 
ATOM     14  F   LIG d   1      19.345   3.636  33.926  0.00  0.00    -0.204 F 
ATOM     15  C   LIG d   1      20.419   6.190  34.730  0.00  0.00     0.033 C 
ATOM     16  C   LIG d   1      18.104   6.615  35.612  0.00  0.00    -0.001 A 
ATOM     17  C   LIG d   1      16.772   6.217  35.847  0.00  0.00     0.019 A 
ENDBRANCH   8  10
ENDBRANCH   1   7
BRANCH   4  18
ATOM     18  C   LIG d   1      15.496   9.700  32.591  0.00  0.00     0.727 A 
ATOM     19  N   LIG d   1      16.430   9.975  33.547  0.00  0.00    -0.060 NA
ATOM     20  C   LIG d   1      17.238  11.064  33.508  0.00  0.00     0.120 A 
ATOM     21  C   LIG d   1      17.127  11.968  32.439  0.00  0.00     0.043 A 
ATOM     22  C   LIG d   1      16.176  11.686  31.445  0.00  0.00     0.120 A 
ATOM     23  N   LIG d   1      15.403  10.577  31.551  0.00  0.00    -0.060 NA
ENDBRANCH   4  18
TORSDOF 3
ENDMDL
MODEL 6
REMARK NAME *****_MODEL6
REMARK  3 active torsions:
REMARK  status: ('A' for Active; 'I' for Inactive)
REMARK    1  A    between atoms: C_5  and  N_8 
REMARK       I    between atoms: N_8  and  C_9 
REMARK    2  A    between atoms: C_9  and  C_11 
REMARK    3  A    between atoms: N_14  and  C_17 
ROOT
ATOM      1  C   LIG d   1      17.487   9.098  32.355  0.00  0.00     0.085 C 
ATOM      2  C   LIG d   1      18.351   7.918  31.816  0.00  0.00     0.034 C 
ATOM      3  C   LIG d   1      19.750   7.913  32.482  0.00  0.00     0.120 C 
ATOM      4  N   LIG d   1      19.594   7.842  33.926  0.00  0.00    -0.183 N 
ATOM      5  C   LIG d   1      18.849   8.938  34.530  0.00  0.00     0.120 C 
ATOM      6  C   LIG d   1      17.425   9.024  33.914  0.00  0.00     0.034 C 
ENDROOT
BRANCH   1   7
ATOM      7  C   LIG d   1      16.126   9.129  31.741  0.00  0.00     0.255 C 
ATOM      8  N   LIG d   1      15.084   8.295  32.031  0.00  0.00    -0.212 NA
ATOM      9  O   LIG d   1      15.894   9.967  30.839  0.00  0.00    -0.270 OA
BRANCH   8  10
ATOM     10  C   LIG d   1      14.944   7.427  33.076  0.00  0.00     0.086 A 
ATOM     11  C   LIG d   1      15.890   6.420  33.368  0.00  0.00     0.049 A 
ATOM     12  C   LIG d   1      15.730   5.566  34.475  0.00  0.00     0.138 A 
ATOM     13  C   LIG d   1      14.617   5.711  35.337  0.00  0.00     0.006 A 
ATOM     14  F   LIG d   1      16.640   4.649  34.678  0.00  0.00    -0.204 F 
ATOM     15  C   LIG d   1      14.412   4.814  36.503  0.00  0.00     0.033 C 
ATOM     16  C   LIG d   1      13.677   6.731  35.054  0.00  0.00    -0.001 A 
ATOM     17  C   LIG d   1      13.845   7.585  33.945  0.00  0.00     0.019 A 
ENDBRANCH   8  10
ENDBRANCH   1   7
BRANCH   4  18
ATOM     18  C   LIG d   1      20.067   6.768  34.660  0.00  0.00     0.727 A 
ATOM     19  N   LIG d   1      20.857   6.942  35.759  0.00  0.00    -0.060 NA
ATOM     20  C   LIG d   1      21.367   5.912  36.480  0.00  0.00     0.120 A 
ATOM     21  C   LIG d   1      21.081   4.591  36.097  0.00  0.00     0.043 A 
ATOM     22  C   LIG d   1      20.259   4.404  34.974  0.00  0.00     0.120 A 
ATOM     23  N   LIG d   1      19.784   5.483  34.302  0.00  0.00    -0.060 NA
ENDBRANCH   4  18
TORSDOF 3
ENDMDL
MODEL 7
REMARK NAME *****_MODEL7
REMARK  3 active torsions:
REMARK  status: ('A' for Active; 'I' for Inactive)
REMARK    1  A    between atoms: C_5  and  N_8 
REMARK       I    between atoms: N_8  and  C_9 
REMARK    2  A    between atoms: C_9  and  C_11 
REMARK    3  A    between atoms: N_14  and  C_17 
ROOT
ATOM      1  C   LIG d   1      19.168   5.657  34.484  0.00  0.00     0.085 C 
ATOM      2  C   LIG d   1      18.605   6.696  35.499  0.00  0.00     0.034 C 
ATOM      3  C   LIG d   1      19.225   8.095  35.254  0.00  0.00     0.120 C 
ATOM      4  N   LIG d   1      18.969   8.499  33.881  0.00  0.00    -0.183 N 
ATOM      5  C   LIG d   1      19.511   7.616  32.857  0.00  0.00     0.120 C 
ATOM      6  C   LIG d   1      18.945   6.180  33.030  0.00  0.00     0.034 C 
ENDROOT
BRANCH   1   7
ATOM      7  C   LIG d   1      18.585   4.296  34.686  0.00  0.00     0.255 C 
ATOM      8  N   LIG d   1      17.288   4.007  35.004  0.00  0.00    -0.212 NA
ATOM      9  O   LIG d   1      19.340   3.301  34.599  0.00  0.00    -0.270 OA
BRANCH   8  10
ATOM     10  C   LIG d   1      16.194   4.823  34.975  0.00  0.00     0.086 A 
ATOM     11  C   LIG d   1      15.877   5.641  33.867  0.00  0.00     0.049 A 
ATOM     12  C   LIG d   1      14.721   6.443  33.858  0.00  0.00     0.138 A 
ATOM     13  C   LIG d   1      13.834   6.434  34.961  0.00  0.00     0.006 A 
ATOM     14  F   LIG d   1      14.496   7.182  32.803  0.00  0.00    -0.204 F 
ATOM     15  C   LIG d   1      12.615   7.283  34.987  0.00  0.00     0.033 C 
ATOM     16  C   LIG d   1      14.143   5.604  36.064  0.00  0.00    -0.001 A 
ATOM     17  C   LIG d   1      15.301   4.799  36.066  0.00  0.00     0.019 A 
ENDBRANCH   8  10
ENDBRANCH   1   7
BRANCH   4  18
ATOM     18  C   LIG d   1      18.203   9.612  33.576  0.00  0.00     0.727 A 
ATOM     19  N   LIG d   1      16.842   9.548  33.500  0.00  0.00    -0.060 NA
ATOM     20  C   LIG d   1      16.065  10.609  33.169  0.00  0.00     0.120 A 
ATOM     21  C   LIG d   1      16.667  11.846  32.889  0.00  0.00     0.043 A 
ATOM     22  C   LIG d   1      18.066  11.923  32.976  0.00  0.00     0.120 A 
ATOM     23  N   LIG d   1      18.779  10.820  33.314  0.00  0.00    -0.060 NA
ENDBRANCH   4  18
TORSDOF 3
ENDMDL
MODEL 8
REMARK NAME *****_MODEL8
REMARK  3 active torsions:
REMARK  status: ('A' for Active; 'I' for Inactive)
REMARK    1  A    between atoms: C_5  and  N_8 
REMARK       I    between atoms: N_8  and  C_9 
REMARK    2  A    between atoms: C_9  and  C_11 
REMARK    3  A    between atoms: N_14  and  C_17 
ROOT
ATOM      1  C   LIG d   1      14.553   5.596  34.642  0.00  0.00     0.085 C 
ATOM      2  C   LIG d   1      15.734   5.936  35.599  0.00  0.00     0.034 C 
ATOM      3  C   LIG d   1      17.041   6.164  34.797  0.00  0.00     0.120 C 
ATOM      4  N   LIG d   1      16.827   7.219  33.820  0.00  0.00    -0.183 N 
ATOM      5  C   LIG d   1      15.777   6.963  32.843  0.00  0.00     0.120 C 
ATOM      6  C   LIG d   1      14.423   6.715  33.561  0.00  0.00     0.034 C 
ENDROOT
BRANCH   1   7
ATOM      7  C   LIG d   1      13.273   5.377  35.381  0.00  0.00     0.255 C 
ATOM      8  N   LIG d   1      12.194   6.215  35.402  0.00  0.00    -0.212 NA
ATOM      9  O   LIG d   1      13.157   4.352  36.091  0.00  0.00    -0.270 OA
BRANCH   8  10
ATOM     10  C   LIG d   1      11.923   7.287  34.601  0.00  0.00     0.086 A 
ATOM     11  C   LIG d   1      12.488   8.565  34.812  0.00  0.00     0.049 A 
ATOM     12  C   LIG d   1      12.214   9.638  33.945  0.00  0.00     0.138 A 
ATOM     13  C   LIG d   1      11.371   9.454  32.822  0.00  0.00     0.006 A 
ATOM     14  F   LIG d   1      12.764  10.795  34.208  0.00  0.00    -0.204 F 
ATOM     15  C   LIG d   1      11.050  10.572  31.898  0.00  0.00     0.033 C 
ATOM     16  C   LIG d   1      10.818   8.171  32.601  0.00  0.00    -0.001 A 
ATOM     17  C   LIG d   1      11.100   7.098  33.472  0.00  0.00     0.019 A 
ENDBRANCH   8  10
ENDBRANCH   1   7
BRANCH   4  18
ATOM     18  C   LIG d   1      17.531   8.411  33.863  0.00  0.00     0.727 A 
ATOM     19  N   LIG d   1      18.889   8.438  33.989  0.00  0.00    -0.060 NA
ATOM     20  C   LIG d   1      19.606   9.587  34.072  0.00  0.00     0.120 A 
ATOM     21  C   LIG d   1      18.940  10.822  34.026  0.00  0.00     0.043 A 
ATOM     22  C   LIG d   1      17.543  10.802  33.884  0.00  0.00     0.120 A 
ATOM     23  N   LIG d   1      16.892   9.614  33.808  0.00  0.00    -0.060 NA
ENDBRANCH   4  18
TORSDOF 3
ENDMDL
MODEL 9
REMARK NAME *****_MODEL9
REMARK  3 active torsions:
REMARK  status: ('A' for Active; 'I' for Inactive)
REMARK    1  A    between atoms: C_5  and  N_8 
REMARK       I    between atoms: N_8  and  C_9 
REMARK    2  A    between atoms: C_9  and  C_11 
REMARK    3  A    between atoms: N_14  and  C_17 
ROOT
ATOM      1  C   LIG d   1      17.076   9.419  32.584  0.00  0.00     0.085 C 
ATOM      2  C   LIG d   1      17.973   8.338  31.910  0.00  0.00     0.034 C 
ATOM      3  C   LIG d   1      19.382   8.314  32.555  0.00  0.00     0.120 C 
ATOM      4  N   LIG d   1      19.251   8.082  33.985  0.00  0.00    -0.183 N 
ATOM      5  C   LIG d   1      18.476   9.077  34.712  0.00  0.00     0.120 C 
ATOM      6  C   LIG d   1      17.041   9.176  34.126  0.00  0.00     0.034 C 
ENDROOT
BRANCH   1   7
ATOM      7  C   LIG d   1      15.705   9.465  31.993  0.00  0.00     0.255 C 
ATOM      8  N   LIG d   1      14.683   8.594  32.241  0.00  0.00    -0.212 NA
ATOM      9  O   LIG d   1      15.443  10.357  31.153  0.00  0.00    -0.270 OA
BRANCH   8  10
ATOM     10  C   LIG d   1      14.575   7.656  33.228  0.00  0.00     0.086 A 
ATOM     11  C   LIG d   1      15.511   6.612  33.399  0.00  0.00     0.049 A 
ATOM     12  C   LIG d   1      15.386   5.684  34.449  0.00  0.00     0.138 A 
ATOM     13  C   LIG d   1      14.321   5.789  35.375  0.00  0.00     0.006 A 
ATOM     14  F   LIG d   1      16.284   4.737  34.541  0.00  0.00    -0.204 F 
ATOM     15  C   LIG d   1      14.154   4.814  36.484  0.00  0.00     0.033 C 
ATOM     16  C   LIG d   1      13.392   6.844  35.213  0.00  0.00    -0.001 A 
ATOM     17  C   LIG d   1      13.524   7.772  34.161  0.00  0.00     0.019 A 
ENDBRANCH   8  10
ENDBRANCH   1   7
BRANCH   4  18
ATOM     18  C   LIG d   1      19.774   6.953  34.593  0.00  0.00     0.727 A 
ATOM     19  N   LIG d   1      20.614   7.039  35.665  0.00  0.00    -0.060 NA
ATOM     20  C   LIG d   1      21.173   5.957  36.262  0.00  0.00     0.120 A 
ATOM     21  C   LIG d   1      20.886   4.672  35.771  0.00  0.00     0.043 A 
ATOM     22  C   LIG d   1      20.014   4.575  34.676  0.00  0.00     0.120 A 
ATOM     23  N   LIG d   1      19.492   5.702  34.130  0.00  0.00    -0.060 NA
ENDBRANCH   4  18
TORSDOF 3
ENDMDL
MODEL 10
REMARK NAME *****_MODEL10
REMARK  3 active torsions:
REMARK  status: ('A' for Active; 'I' for Inactive)
REMARK    1  A    between atoms: C_5  and  N_8 
REMARK       I    between atoms: N_8  and  C_9 
REMARK    2  A    between atoms: C_9  and  C_11 
REMARK    3  A    between atoms: N_14  and  C_17 
ROOT
ATOM      1  C   LIG d   1      13.844   6.213  34.096  0.00  0.00     0.085 C 
ATOM      2  C   LIG d   1      15.011   5.190  34.234  0.00  0.00     0.034 C 
ATOM      3  C   LIG d   1      16.227   5.624  33.376  0.00  0.00     0.120 C 
ATOM      4  N   LIG d   1      16.641   6.960  33.773  0.00  0.00    -0.183 N 
ATOM      5  C   LIG d   1      15.631   7.999  33.622  0.00  0.00     0.120 C 
ATOM      6  C   LIG d   1      14.365   7.643  34.448  0.00  0.00     0.034 C 
ENDROOT
BRANCH   1   7
ATOM      7  C   LIG d   1      12.656   5.831  34.917  0.00  0.00     0.255 C 
ATOM      8  N   LIG d   1      11.439   6.449  34.921  0.00  0.00    -0.212 NA
ATOM      9  O   LIG d   1      12.765   4.876  35.721  0.00  0.00    -0.270 OA
BRANCH   8  10
ATOM     10  C   LIG d   1      10.938   7.367  34.043  0.00  0.00     0.086 A 
ATOM     11  C   LIG d   1      11.762   8.204  33.257  0.00  0.00     0.049 A 
ATOM     12  C   LIG d   1      11.212   9.115  32.336  0.00  0.00     0.138 A 
ATOM     13  C   LIG d   1       9.810   9.199  32.164  0.00  0.00     0.006 A 
ATOM     14  F   LIG d   1      12.034   9.865  31.651  0.00  0.00    -0.204 F 
ATOM     15  C   LIG d   1       9.199  10.162  31.211  0.00  0.00     0.033 C 
ATOM     16  C   LIG d   1       8.985   8.350  32.938  0.00  0.00    -0.001 A 
ATOM     17  C   LIG d   1       9.543   7.437  33.857  0.00  0.00     0.019 A 
ENDBRANCH   8  10
ENDBRANCH   1   7
BRANCH   4  18
ATOM     18  C   LIG d   1      17.889   7.207  34.319  0.00  0.00     0.727 A 
ATOM     19  N   LIG d   1      18.367   8.476  34.472  0.00  0.00    -0.060 NA
ATOM     20  C   LIG d   1      19.599   8.752  34.969  0.00  0.00     0.120 A 
ATOM     21  C   LIG d   1      20.442   7.697  35.353  0.00  0.00     0.043 A 
ATOM     22  C   LIG d   1      19.953   6.389  35.209  0.00  0.00     0.120 A 
ATOM     23  N   LIG d   1      18.709   6.189  34.705  0.00  0.00    -0.060 NA
ENDBRANCH   4  18
TORSDOF 3
ENDMDL
