@<TRIPOS>MOLECULE
/tmp/D0PXSMR
 53 55 0 0 0
SMALL
GASTEIGER

@<TRIPOS>ATOM
      1  C1        -3.5491   -1.4261   -2.0725 C.3   701  9D8701      0.0151
      2  C2        -4.3186   -1.6633   -3.3943 C.3   701  9D8701     -0.0400
      3  O2         2.0491   -5.9197    3.5875 O.2   701  9D8701     -0.1500
      4  C4        -2.1234   -3.4042   -2.6934 C.3   701  9D8701      0.0400
      5  C5        -1.2515   -4.6071   -2.4729 C.ar  701  9D8701     -0.0301
      6  C7        -0.9908   -6.8129   -1.6760 C.ar  701  9D8701     -0.0615
      7  C8         0.4050   -6.6550   -1.6147 C.ar  701  9D8701     -0.0617
      8  C9         1.0022   -5.5465   -2.1403 C.ar  701  9D8701     -0.0615
      9  C10        0.1702   -4.5283   -2.5828 C.ar  701  9D8701     -0.0571
     10  C11       -1.5186   -3.5775    0.4827 C.ar  701  9D8701      0.0370
     11  C12       -0.2402   -3.5515   -0.0205 C.ar  701  9D8701     -0.0478
     12  C13        0.8054   -4.3369    0.4774 C.ar  701  9D8701     -0.0344
     13  C14        0.6227   -5.1284    1.5791 C.ar  701  9D8701      0.1085
     14  C15        0.4240   -8.2478    1.9569 C.ar  701  9D8701      0.0494
     15  C16       -0.0938   -8.6081    3.1744 C.ar  701  9D8701     -0.0210
     16  C17       -1.4225   -9.0719    3.2344 C.ar  701  9D8701      0.0428
     17  C18       -2.2580   -9.1080    2.1154 C.ar  701  9D8701     -0.0433
     18  C19       -1.7377   -8.7536    0.9063 C.ar  701  9D8701     -0.0586
     19  C20       -0.3914   -8.4185    0.8542 C.ar  701  9D8701     -0.0392
     20  C21       -0.5902   -4.9903    2.2722 C.ar  701  9D8701     -0.0344
     21  C22       -1.6586   -4.2260    1.7127 C.ar  701  9D8701     -0.0478
     22  S          2.0080   -6.0665    2.1945 S.O2  701  9D8701      0.0723
     23  O1         3.1859   -5.6941    1.3485 O.2   701  9D8701     -0.1500
     24  N1         1.7277   -7.6882    1.7616 N.pl3 701  9D8701     -0.2162
     25 CL         -2.0613   -9.6390    4.7190 Cl    701  9D8701     -0.0835
     26  C         -2.4991   -2.6499   -0.1735 C.2   701  9D8701      0.2469
     27  O         -3.0362   -1.8542    0.6019 O.2   701  9D8701     -0.2700
     28  N         -2.7227   -2.5916   -1.5895 N.am  701  9D8701     -0.2932
     29  C3        -5.0724   -0.4487   -3.9227 C.3   701  9D8701     -0.0639
     30  C6        -1.8340   -5.7977   -2.0778 C.ar  701  9D8701     -0.0571
     31 H          -2.8699   -0.5718   -2.2062 H     701  9D8701      0.0465
     32 H          -4.2670   -1.1312   -1.2978 H     701  9D8701      0.0465
     33 H          -3.6319   -1.9619   -4.1941 H     701  9D8701      0.0278
     34 H          -5.0266   -2.4875   -3.2515 H     701  9D8701      0.0278
     35 H          -2.9745   -3.7831   -3.2727 H     701  9D8701      0.0514
     36 H          -1.5717   -2.7108   -3.3367 H     701  9D8701      0.0514
     37 H          -1.4724   -7.7238   -1.3714 H     701  9D8701      0.0618
     38 H           1.0882   -7.3061   -1.0809 H     701  9D8701      0.0618
     39 H           2.0687   -5.4036   -1.9582 H     701  9D8701      0.0618
     40 H           0.6606   -3.5656   -2.7177 H     701  9D8701      0.0621
     41 H          -0.1025   -2.9388   -0.8969 H     701  9D8701      0.0626
     42 H           1.7560   -4.3678   -0.0469 H     701  9D8701      0.0637
     43 H           0.5375   -8.5888    4.0553 H     701  9D8701      0.0651
     44 H          -3.2856   -9.4535    2.1437 H     701  9D8701      0.0632
     45 H          -2.3560   -8.7903    0.0144 H     701  9D8701      0.0619
     46 H           0.0416   -8.3569   -0.1115 H     701  9D8701      0.0636
     47 H          -0.6790   -5.4266    3.2595 H     701  9D8701      0.0637
     48 H          -2.5712   -4.0831    2.2857 H     701  9D8701      0.0626
     49 H           2.2064   -7.9046    0.8995 H     701  9D8701      0.1737
     50 H          -4.3841    0.3612   -4.1858 H     701  9D8701      0.0230
     51 H          -5.8004   -0.0730   -3.1996 H     701  9D8701      0.0230
     52 H          -5.6155   -0.7223   -4.8367 H     701  9D8701      0.0230
     53 H          -2.9138   -5.9301   -2.0165 H     701  9D8701      0.0621
@<TRIPOS>BOND
     1     8     7   ar
     2     8     9   ar
     3     7     6   ar
     4     9     5   ar
     5     6    30   ar
     6     5    30   ar
     7     5     4    1
     8     4    28    1
     9    28     1    1
    10    28    26   am
    11     2    29    1
    12     2     1    1
    13    23    22    2
    14    12    11   ar
    15    12    13   ar
    16    11    10   ar
    17     3    22    2
    18    13    22    1
    19    13    20   ar
    20    22    24    1
    21    10    26    1
    22    10    21   ar
    23    26    27    2
    24    20    21   ar
    25    24    14    1
    26    14    15   ar
    27    14    19   ar
    28    15    16   ar
    29    19    18   ar
    30    16    25    1
    31    16    17   ar
    32    18    17   ar
    33     1    31    1
    34     1    32    1
    35     2    33    1
    36     2    34    1
    37     4    35    1
    38     4    36    1
    39     6    37    1
    40     7    38    1
    41     8    39    1
    42     9    40    1
    43    11    41    1
    44    12    42    1
    45    15    43    1
    46    17    44    1
    47    18    45    1
    48    19    46    1
    49    20    47    1
    50    21    48    1
    51    24    49    1
    52    29    50    1
    53    29    51    1
    54    29    52    1
    55    30    53    1
