@<TRIPOS>MOLECULE

53 55 1
SMALL
USER_CHARGES
@<TRIPOS>ATOM
1	C1     1.9894    10.3327     3.3594	C.3	1	noname	-0.0641
2	C2     2.1415     8.8551     2.9327	C.3	1	noname	-0.0427
3	C3     2.5868     8.7153     1.4523	C.3	1	noname	0.0062
4	N1     2.7894     7.3220     1.0888	N.3	1	noname	-0.0645
5	C4     4.1408     6.7784     1.1632	C.3	1	noname	0.0312
6	C5     4.6269     6.1837    -0.1130	C.2	1	noname	-0.0485
7	C6     4.5822     6.9302    -1.3153	C.2	1	noname	-0.0530
8	C7     4.9791     6.3524    -2.5353	C.2	1	noname	-0.0594
9	C8     5.4522     5.0287    -2.5659	C.2	1	noname	-0.0613
10	C9     5.5290     4.2838    -1.3750	C.2	1	noname	-0.0594
11	C10     5.1221     4.8580    -0.1570	C.2	1	noname	-0.0530
12	C11     1.6922     6.5318     0.7443	C.2	1	noname	0.0208
13	O1     0.5383     7.0154     0.6554	O.2	1	noname	-0.2943
14	C12     1.7666     5.1502     0.4702	C.2	1	noname	0.0178
15	C13     1.6913     4.6764    -0.8588	C.2	1	noname	0.0069
16	C14     1.8251     3.3029    -1.1308	C.2	1	noname	0.0280
17	C15     2.0162     2.3843    -0.0768	C.2	1	noname	0.0337
18	C16     2.0523     2.8541     1.2521	C.2	1	noname	0.0280
19	C17     1.9323     4.2280     1.5248	C.2	1	noname	0.0069
20	S1     2.2203     0.6513    -0.3873	S	1	noname	-0.0954
21	O2     3.5763     0.1421     0.3057	O.2	1	noname	-0.1951
22	O3     2.3060     0.3240    -1.9561	O.2	1	noname	-0.1951
23	N2     0.9168    -0.2158     0.3195	N.3	1	noname	0.0795
24	C18    -0.4052    -0.0867     0.0155	C.2	1	noname	-0.0139
25	C19    -0.9089     0.5752    -1.1314	C.2	1	noname	-0.0126
26	C20    -2.2971     0.6606    -1.3625	C.2	1	noname	-0.0111
27	C21    -3.1970     0.0865    -0.4442	C.2	1	noname	-0.0405
28	C22    -2.7091    -0.5691     0.6988	C.2	1	noname	-0.0495
29	C23    -1.3225    -0.6580     0.9226	C.2	1	noname	-0.0424
30	Cl1    -2.8786     1.4508    -2.7427	Cl	1	noname	-0.0834
31	H1     1.9827    10.3979     4.4475	H	1	noname	0.0231
32	H2     2.8244    10.9124     2.9659	H	1	noname	0.0231
33	H3     1.0538    10.7301     2.9659	H	1	noname	0.0231
34	H4     2.9533     8.4481     3.5355	H	1	noname	0.0277
35	H5     1.1448     8.4181     2.9944	H	1	noname	0.0277
36	H6     1.7611     9.0560     0.8275	H	1	noname	0.0435
37	H7     3.5684     9.1801     1.3594	H	1	noname	0.0435
38	H8     4.7859     7.6335     1.3652	H	1	noname	0.0486
39	H9     4.0836     5.9579     1.8784	H	1	noname	0.0486
40	H10     4.2375     7.9641    -1.3013	H	1	noname	0.0626
41	H11     4.9200     6.9306    -3.4574	H	1	noname	0.0622
42	H12     5.7589     4.5808    -3.5111	H	1	noname	0.0622
43	H13     5.9042     3.2606    -1.3960	H	1	noname	0.0622
44	H14     5.1910     4.2716     0.7592	H	1	noname	0.0626
45	H15     1.5288     5.3750    -1.6795	H	1	noname	0.0631
46	H16     1.7806     2.9496    -2.1610	H	1	noname	0.0639
47	H17     2.1740     2.1497     2.0750	H	1	noname	0.0639
48	H18     1.9678     4.5790     2.5561	H	1	noname	0.0631
49	H19     0.9298    -0.9248     1.0387	H	1	noname	0.1506
50	H20    -0.2191     1.0247    -1.8457	H	1	noname	0.0655
51	H21    -4.2712     0.1495    -0.6182	H	1	noname	0.0638
52	H22    -3.4063    -1.0088     1.4120	H	1	noname	0.0623
53	H23    -0.9547    -1.1754     1.8088	H	1	noname	0.0639
@<TRIPOS>BOND
1	1	2	1
2	2	3	1
3	3	4	1
4	4	5	1
5	5	6	1
6	6	7	2
7	7	8	1
8	8	9	2
9	9	10	1
10	10	11	2
11	6	11	1
12	4	12	1
13	12	13	2
14	12	14	1
15	14	15	2
16	15	16	1
17	16	17	2
18	17	18	1
19	18	19	2
20	14	19	1
21	17	20	1
22	20	21	2
23	20	22	2
24	20	23	1
25	23	24	1
26	24	25	2
27	25	26	1
28	26	27	2
29	27	28	1
30	28	29	2
31	24	29	1
32	26	30	1
33	1	31	1
34	1	32	1
35	1	33	1
36	2	34	1
37	2	35	1
38	3	36	1
39	3	37	1
40	5	38	1
41	5	39	1
42	7	40	1
43	8	41	1
44	9	42	1
45	10	43	1
46	11	44	1
47	15	45	1
48	16	46	1
49	18	47	1
50	19	48	1
51	23	49	1
52	25	50	1
53	27	51	1
54	28	52	1
55	29	53	1
@<TRIPOS>SUBSTRUCTURE
1	noname	1
