@<TRIPOS>MOLECULE

47 49 1
SMALL
USER_CHARGES
@<TRIPOS>ATOM
1	C1     3.0406    -5.7326    -5.4783	C.3	1	noname	-0.0544
2	C2     2.9837    -6.7343    -4.2929	C.3	1	noname	0.0274
3	C3     3.9530    -7.9330    -4.4721	C.3	1	noname	-0.0544
4	C4     3.2184    -6.0436    -2.9990	C.2	1	noname	0.1401
5	O1     2.3131    -6.0882    -2.1319	O.2	1	noname	-0.2731
6	N1     4.3810    -5.3620    -2.7849	N.3	1	noname	-0.0936
7	C5     4.6692    -4.6045    -1.6986	C.2	1	noname	0.1003
8	N2     3.9451    -4.4490    -0.5669	N.2	1	noname	-0.1985
9	C6     4.4058    -3.5408     0.3313	C.2	1	noname	0.0445
10	C7     5.5695    -2.8475    -0.0209	C.2	1	noname	0.0664
11	S1     6.0661    -3.5516    -1.5488	S.3	1	noname	-0.1560
12	C8     6.1554    -1.7578     0.6547	C.2	1	noname	-0.0016
13	C9     5.4254    -0.5661     0.9470	C.2	1	noname	0.0189
14	C10     6.1191     0.4839     1.5927	C.2	1	noname	0.0159
15	N3     7.4063     0.3248     1.9870	N.2	1	noname	-0.2409
16	C11     8.1041    -0.8139     1.7615	C.2	1	noname	0.0029
17	C12     7.5027    -1.8734     1.0653	C.2	1	noname	0.0027
18	C13     4.0455    -0.3866     0.6104	C.2	1	noname	-0.0164
19	C14     3.0083    -0.2255     1.5861	C.2	1	noname	0.0168
20	C15     1.6738    -0.0733     1.1252	C.2	1	noname	0.0084
21	C16     1.3452    -0.1538    -0.2389	C.2	1	noname	0.0135
22	C17     2.3712    -0.2983    -1.1853	C.2	1	noname	-0.0228
23	C18     3.7063    -0.4009    -0.7660	C.2	1	noname	-0.0245
24	O2     0.0385    -0.0722    -0.6411	O.3	1	noname	-0.2762
25	C19    -0.6151    -1.3555    -0.6766	C.3	1	noname	0.0423
26	C20     3.2473    -0.2101     3.0673	C.3	1	noname	0.4168
27	F1     3.5381     1.0696     3.4729	F	1	noname	-0.1661
28	F2     4.2569    -1.0506     3.4692	F	1	noname	-0.1661
29	F3     2.1625    -0.6360     3.7999	F	1	noname	-0.1661
30	H1     3.0856    -6.2836    -6.4177	H	1	noname	0.0238
31	H2     2.1490    -5.1056    -5.4672	H	1	noname	0.0238
32	H3     3.9270    -5.1056    -5.3819	H	1	noname	0.0238
33	H4     1.9702    -7.1313    -4.2359	H	1	noname	0.0391
34	H5     4.2546    -8.3059    -3.4933	H	1	noname	0.0238
35	H6     3.4506    -8.7271    -5.0245	H	1	noname	0.0238
36	H7     4.8346    -7.6079    -5.0245	H	1	noname	0.0238
37	H8     5.0948    -5.4241    -3.4968	H	1	noname	0.1394
38	H9     3.8776    -3.3794     1.2710	H	1	noname	0.0855
39	H10     5.6471     1.4458     1.7928	H	1	noname	0.0846
40	H11     9.1273    -0.8762     2.1321	H	1	noname	0.0839
41	H12     8.0749    -2.7748     0.8461	H	1	noname	0.0645
42	H13     0.8745     0.1117     1.8429	H	1	noname	0.0656
43	H14     2.1308    -0.3309    -2.2480	H	1	noname	0.0650
44	H15     4.4894    -0.4929    -1.5186	H	1	noname	0.0630
45	H16    -0.7915    -1.7017     0.3418	H	1	noname	0.0535
46	H17    -1.5673    -1.2640    -1.1992	H	1	noname	0.0535
47	H18     0.0188    -2.0718    -1.1992	H	1	noname	0.0535
@<TRIPOS>BOND
1	1	2	1
2	2	3	1
3	2	4	1
4	4	5	2
5	4	6	1
6	6	7	1
7	7	8	2
8	8	9	1
9	9	10	2
10	10	11	1
11	7	11	1
12	10	12	1
13	12	13	2
14	13	14	1
15	14	15	2
16	15	16	1
17	16	17	2
18	12	17	1
19	13	18	1
20	18	19	2
21	19	20	1
22	20	21	2
23	21	22	1
24	22	23	2
25	18	23	1
26	21	24	1
27	24	25	1
28	19	26	1
29	26	27	1
30	26	28	1
31	26	29	1
32	1	30	1
33	1	31	1
34	1	32	1
35	2	33	1
36	3	34	1
37	3	35	1
38	3	36	1
39	6	37	1
40	9	38	1
41	14	39	1
42	16	40	1
43	17	41	1
44	20	42	1
45	22	43	1
46	23	44	1
47	25	45	1
48	25	46	1
49	25	47	1
@<TRIPOS>SUBSTRUCTURE
1	noname	1
