@<TRIPOS>MOLECULE

43 46 1
SMALL
USER_CHARGES
@<TRIPOS>ATOM
1	C1     1.2296    -0.9880    -0.5685	C.3	1	noname	-0.0006
2	C2    -0.0212    -0.2357    -0.3171	C.2	1	noname	-0.0451
3	C3    -0.2479     1.0444    -0.8729	C.2	1	noname	-0.0287
4	C4    -1.4543     1.7367    -0.6335	C.2	1	noname	0.0016
5	C5    -2.4666     1.1326     0.1556	C.2	1	noname	-0.0157
6	C6    -2.2264    -0.1370     0.7275	C.2	1	noname	-0.0362
7	C7    -1.0187    -0.8121     0.4961	C.2	1	noname	-0.0589
8	C8    -3.7347     1.7292     0.3888	C.2	1	noname	0.0176
9	C9    -4.9275     1.2266    -0.2038	C.2	1	noname	-0.0012
10	C10    -6.1693     1.7873     0.1701	C.2	1	noname	0.0010
11	C11    -6.2083     2.8431     1.0936	C.2	1	noname	0.0031
12	N1    -5.0553     3.3195     1.6222	N.2	1	noname	-0.2426
13	C12    -3.8414     2.8032     1.3035	C.2	1	noname	0.0164
14	C13    -4.9392     0.1771    -1.1518	C.2	1	noname	0.0379
15	C14    -4.2470     0.0785    -2.3682	C.2	1	noname	0.0362
16	N2    -4.4897    -1.0319    -3.1157	N.2	1	noname	-0.2238
17	C15    -5.3598    -1.9305    -2.6012	C.2	1	noname	0.0923
18	S1    -5.8970    -1.2891    -1.0609	S.3	1	noname	-0.1881
19	N3    -5.8459    -3.0851    -3.1184	N.3	1	noname	0.0198
20	C16    -5.6369    -3.6381    -4.3485	C.2	1	noname	-0.0418
21	C17    -6.6086    -4.5664    -4.7861	C.2	1	noname	-0.0455
22	C18    -6.5283    -5.1485    -6.0637	C.2	1	noname	-0.0324
23	C19    -5.4565    -4.8286    -6.9162	C.2	1	noname	-0.0231
24	C20    -4.4592    -3.9353    -6.4802	C.2	1	noname	-0.0324
25	C21    -4.5453    -3.3482    -5.2035	C.2	1	noname	-0.0455
26	O1    -5.4011    -5.3733    -8.1557	O.3	1	noname	-0.2897
27	Cl1    -1.6512     3.2725    -1.3303	Cl	1	noname	-0.0791
28	H1     1.6859    -1.2624     0.3826	H	1	noname	0.0279
29	H2     1.0031    -1.8903    -1.1365	H	1	noname	0.0279
30	H3     1.9205    -0.3650    -1.1365	H	1	noname	0.0279
31	H4     0.5193     1.5047    -1.4955	H	1	noname	0.0641
32	H5    -2.9846    -0.6027     1.3570	H	1	noname	0.0629
33	H6    -0.8545    -1.7892     0.9503	H	1	noname	0.0625
34	H7    -7.0978     1.4052    -0.2541	H	1	noname	0.0645
35	H8    -7.1478     3.2997     1.4049	H	1	noname	0.0839
36	H9    -2.9640     3.2452     1.7757	H	1	noname	0.0846
37	H10    -3.5467     0.8363    -2.7195	H	1	noname	0.0855
38	H11    -6.4494    -3.6073    -2.4994	H	1	noname	0.1365
39	H12    -7.4336    -4.8379    -4.1274	H	1	noname	0.0640
40	H13    -7.2968    -5.8478    -6.3931	H	1	noname	0.0650
41	H14    -3.6187    -3.6977    -7.1323	H	1	noname	0.0650
42	H15    -3.7621    -2.6651    -4.8750	H	1	noname	0.0640
43	H16    -5.4043    -6.3307    -8.0850	H	1	noname	0.2181
@<TRIPOS>BOND
1	1	2	1
2	2	3	2
3	3	4	1
4	4	5	2
5	5	6	1
6	6	7	2
7	2	7	1
8	5	8	1
9	8	9	2
10	9	10	1
11	10	11	2
12	11	12	1
13	12	13	2
14	8	13	1
15	9	14	1
16	14	15	2
17	15	16	1
18	16	17	2
19	17	18	1
20	14	18	1
21	17	19	1
22	19	20	1
23	20	21	2
24	21	22	1
25	22	23	2
26	23	24	1
27	24	25	2
28	20	25	1
29	23	26	1
30	4	27	1
31	1	28	1
32	1	29	1
33	1	30	1
34	3	31	1
35	6	32	1
36	7	33	1
37	10	34	1
38	11	35	1
39	13	36	1
40	15	37	1
41	19	38	1
42	21	39	1
43	22	40	1
44	24	41	1
45	25	42	1
46	26	43	1
@<TRIPOS>SUBSTRUCTURE
1	noname	1
