@<TRIPOS>MOLECULE

48 51 1
SMALL
USER_CHARGES
@<TRIPOS>ATOM
1	C1    -7.1613     0.1266   -10.9687	C.3	1	noname	-0.0011
2	C2    -8.6138    -0.1576   -10.9363	C.2	1	noname	-0.0516
3	C3    -9.1057    -1.4724   -11.0984	C.2	1	noname	-0.0404
4	C4   -10.4929    -1.7512   -11.0626	C.2	1	noname	-0.0236
5	C5   -11.3980    -0.6809   -10.9012	C.2	1	noname	-0.0438
6	C6   -10.9237     0.6337   -10.7406	C.2	1	noname	-0.0560
7	C7    -9.5405     0.8922   -10.7503	C.2	1	noname	-0.0661
8	N1   -10.9897    -3.0118   -11.2435	N.3	1	noname	-0.1363
9	C8   -10.4116    -4.1972   -10.8822	C.2	1	noname	0.0430
10	O1   -10.7731    -5.1662   -11.5879	O.2	1	noname	-0.2730
11	N2    -9.5066    -4.3833    -9.8513	N.3	1	noname	-0.0467
12	C9    -8.4886    -5.4217    -9.9008	C.3	1	noname	0.0204
13	C10    -8.3887    -6.2402    -8.5819	C.3	1	noname	0.0187
14	N3    -8.4111    -5.3364    -7.4526	N.3	1	noname	-0.0589
15	C11    -9.5584    -4.4618    -7.3826	C.3	1	noname	0.0187
16	C12    -9.5674    -3.5703    -8.6509	C.3	1	noname	0.0204
17	C13    -7.3755    -5.2169    -6.5541	C.2	1	noname	0.1262
18	N4    -7.2796    -4.3036    -5.5580	N.2	1	noname	-0.1613
19	N5    -6.1762    -4.2542    -4.8543	N.2	1	noname	-0.1505
20	C14    -5.1890    -5.1216    -5.1677	C.2	1	noname	0.0885
21	S1    -5.8599    -6.1009    -6.4615	S.3	1	noname	-0.1538
22	C15    -3.9031    -5.2017    -4.5833	C.2	1	noname	0.0034
23	C16    -3.2313    -4.0569    -4.0743	C.2	1	noname	0.0123
24	Br1    -3.9045    -2.3206    -4.1984	Br	1	noname	-0.0500
25	C17    -1.9641    -4.1882    -3.4744	C.2	1	noname	-0.0237
26	C18    -1.3411    -5.4434    -3.3890	C.2	1	noname	-0.0368
27	C19    -1.9831    -6.5775    -3.9105	C.2	1	noname	-0.0472
28	C20    -3.2528    -6.4571    -4.5024	C.2	1	noname	-0.0160
29	H1    -6.7827     0.2006    -9.9493	H	1	noname	0.0279
30	H2    -6.6450    -0.6793   -11.4904	H	1	noname	0.0279
31	H3    -6.9868     1.0676   -11.4904	H	1	noname	0.0279
32	H4    -8.4004    -2.2887   -11.2543	H	1	noname	0.0642
33	H5   -12.4714    -0.8709   -10.9007	H	1	noname	0.0639
34	H6   -11.6295     1.4538   -10.6084	H	1	noname	0.0623
35	H7    -9.1843     1.9131   -10.6126	H	1	noname	0.0625
36	H8   -11.8897    -3.0748   -11.6974	H	1	noname	0.1385
37	H9    -8.8267    -6.1046   -10.6801	H	1	noname	0.0449
38	H10    -7.5484    -4.8828   -10.0186	H	1	noname	0.0449
39	H11    -9.2916    -6.8439    -8.4904	H	1	noname	0.0449
40	H12    -7.4090    -6.7173    -8.5544	H	1	noname	0.0449
41	H13   -10.4316    -5.1132    -7.4180	H	1	noname	0.0449
42	H14    -9.3913    -3.8208    -6.5170	H	1	noname	0.0449
43	H15   -10.5327    -3.0657    -8.6935	H	1	noname	0.0449
44	H16    -8.6468    -2.9867    -8.6515	H	1	noname	0.0449
45	H17    -1.4603    -3.3093    -3.0721	H	1	noname	0.0634
46	H18    -0.3620    -5.5372    -2.9192	H	1	noname	0.0623
47	H19    -1.4960    -7.5511    -3.8559	H	1	noname	0.0622
48	H20    -3.7383    -7.3470    -4.9030	H	1	noname	0.0630
@<TRIPOS>BOND
1	1	2	1
2	2	3	2
3	3	4	1
4	4	5	2
5	5	6	1
6	6	7	2
7	2	7	1
8	4	8	1
9	8	9	1
10	9	10	2
11	9	11	1
12	11	12	1
13	12	13	1
14	13	14	1
15	14	15	1
16	15	16	1
17	11	16	1
18	14	17	1
19	17	18	2
20	18	19	1
21	19	20	2
22	20	21	1
23	17	21	1
24	20	22	1
25	22	23	2
26	23	24	1
27	23	25	1
28	25	26	2
29	26	27	1
30	27	28	2
31	22	28	1
32	1	29	1
33	1	30	1
34	1	31	1
35	3	32	1
36	5	33	1
37	6	34	1
38	7	35	1
39	8	36	1
40	12	37	1
41	12	38	1
42	13	39	1
43	13	40	1
44	15	41	1
45	15	42	1
46	16	43	1
47	16	44	1
48	25	45	1
49	26	46	1
50	27	47	1
51	28	48	1
@<TRIPOS>SUBSTRUCTURE
1	noname	1
