@<TRIPOS>MOLECULE

42 44 1
SMALL
USER_CHARGES
@<TRIPOS>ATOM
1	C1    10.4397    10.5484    -4.6787	C.3	1	noname	0.0131
2	C2     9.8333     9.3039    -5.2187	C.2	1	noname	-0.0081
3	C3     9.9074     8.0771    -4.5166	C.2	1	noname	0.0203
4	C4     9.3087     6.9183    -5.0449	C.2	1	noname	0.0125
5	C5     8.6080     6.9472    -6.2705	C.2	1	noname	-0.0175
6	C6     8.5511     8.1641    -6.9799	C.2	1	noname	-0.0417
7	C7     9.1448     9.3296    -6.4553	C.2	1	noname	-0.0451
8	N1     8.0452     5.8354    -6.8293	N.3	1	noname	-0.1384
9	C8     7.2835     4.8680    -6.2366	C.2	1	noname	0.1305
10	O1     7.0807     3.8525    -6.9418	O.2	1	noname	-0.2750
11	C9     6.6566     4.9357    -4.8835	C.3	1	noname	0.0355
12	C10     7.3267     3.9565    -3.8731	C.3	1	noname	-0.0287
13	C11     6.6447     4.0487    -2.4836	C.3	1	noname	0.0067
14	N2     5.2245     3.7760    -2.6285	N.3	1	noname	-0.0606
15	C12     4.4994     4.6804    -3.5098	C.3	1	noname	0.0067
16	C13     5.1208     4.6581    -4.9331	C.3	1	noname	-0.0287
17	C14     4.6226     2.6883    -2.0180	C.2	1	noname	0.0856
18	N3     5.3224     1.8441    -1.2048	N.2	1	noname	-0.2343
19	C15     4.7735     0.7493    -0.6214	C.2	1	noname	0.0095
20	C16     3.4209     0.4492    -0.8477	C.2	1	noname	-0.0298
21	C17     2.6920     1.3194    -1.6741	C.2	1	noname	0.0095
22	N4     3.3068     2.3957    -2.2237	N.2	1	noname	-0.2343
23	F1    10.5313     7.9775    -3.3722	F	1	noname	-0.1650
24	H1    10.4244    10.5170    -3.5892	H	1	noname	0.0280
25	H2    11.4698    10.6307    -5.0253	H	1	noname	0.0280
26	H3     9.8697    11.4104    -5.0253	H	1	noname	0.0280
27	H4     9.3893     5.9809    -4.4945	H	1	noname	0.0670
28	H5     8.0432     8.2042    -7.9435	H	1	noname	0.0639
29	H6     9.0706    10.2630    -7.0133	H	1	noname	0.0627
30	H7     8.2159     5.7115    -7.8171	H	1	noname	0.1371
31	H8     6.8421     5.9656    -4.5783	H	1	noname	0.0398
32	H9     7.1365     2.9491    -4.2432	H	1	noname	0.0287
33	H10     8.3512     4.3027    -3.7369	H	1	noname	0.0287
34	H11     7.0379     3.2437    -1.8628	H	1	noname	0.0436
35	H12     6.7136     5.0822    -2.1440	H	1	noname	0.0436
36	H13     3.4918     4.2707    -3.5810	H	1	noname	0.0436
37	H14     4.6546     5.6765    -3.0953	H	1	noname	0.0436
38	H15     5.0021     3.6397    -5.3031	H	1	noname	0.0287
39	H16     4.6731     5.4907    -5.4757	H	1	noname	0.0287
40	H17     5.4037     0.1263     0.0133	H	1	noname	0.0841
41	H18     2.9537    -0.4271    -0.3984	H	1	noname	0.0655
42	H19     1.6363     1.1573    -1.8916	H	1	noname	0.0841
@<TRIPOS>BOND
1	1	2	1
2	2	3	2
3	3	4	1
4	4	5	2
5	5	6	1
6	6	7	2
7	2	7	1
8	5	8	1
9	8	9	1
10	9	10	2
11	9	11	1
12	11	12	1
13	12	13	1
14	13	14	1
15	14	15	1
16	15	16	1
17	11	16	1
18	14	17	1
19	17	18	2
20	18	19	1
21	19	20	2
22	20	21	1
23	21	22	2
24	17	22	1
25	3	23	1
26	1	24	1
27	1	25	1
28	1	26	1
29	4	27	1
30	6	28	1
31	7	29	1
32	8	30	1
33	11	31	1
34	12	32	1
35	12	33	1
36	13	34	1
37	13	35	1
38	15	36	1
39	15	37	1
40	16	38	1
41	16	39	1
42	19	40	1
43	20	41	1
44	21	42	1
@<TRIPOS>SUBSTRUCTURE
1	noname	1
