@<TRIPOS>MOLECULE

48 51 1
SMALL
USER_CHARGES
@<TRIPOS>ATOM
1	C1    -4.5561     6.5741    -3.1868	C.3	1	noname	-0.0011
2	C2    -5.8378     5.9247    -2.8293	C.2	1	noname	-0.0516
3	C3    -6.8291     5.6817    -3.8063	C.2	1	noname	-0.0404
4	C4    -8.0513     5.0497    -3.4731	C.2	1	noname	-0.0236
5	C5    -8.2951     4.7061    -2.1288	C.2	1	noname	-0.0438
6	C6    -7.3177     4.9429    -1.1457	C.2	1	noname	-0.0560
7	C7    -6.0925     5.5415    -1.4937	C.2	1	noname	-0.0661
8	N1    -9.0267     4.8082    -4.3980	N.3	1	noname	-0.1363
9	C8    -8.8637     4.4812    -5.7175	C.2	1	noname	0.0430
10	O1    -9.8493     4.7847    -6.4303	O.2	1	noname	-0.2730
11	N2    -7.7527     3.8742    -6.2876	N.3	1	noname	-0.0467
12	C9    -7.3927     4.0865    -7.6803	C.3	1	noname	0.0204
13	C10    -7.0564     2.7689    -8.4343	C.3	1	noname	0.0187
14	N3    -6.2160     1.9039    -7.6295	N.3	1	noname	-0.0575
15	C11    -6.7010     1.6329    -6.2929	C.3	1	noname	0.0187
16	C12    -6.9135     2.9646    -5.5309	C.3	1	noname	0.0204
17	C13    -5.0331     1.3553    -8.0840	C.2	1	noname	0.1374
18	N4    -4.2569     0.4802    -7.4120	N.2	1	noname	-0.1751
19	C14    -3.1381     0.0241    -8.0306	C.2	1	noname	0.1066
20	N5    -2.9443     0.5096    -9.2780	N.2	1	noname	-0.1877
21	S1    -4.2214     1.5786    -9.6196	S.3	1	noname	-0.1518
22	C15    -2.2596    -0.9180    -7.4267	C.2	1	noname	0.0076
23	C16    -2.0231    -0.9661    -6.0229	C.2	1	noname	0.0167
24	Br1    -2.7001     0.2850    -4.8119	Br	1	noname	-0.0500
25	C17    -1.2065    -1.9761    -5.4742	C.2	1	noname	-0.0222
26	C18    -0.5935    -2.9299    -6.3030	C.2	1	noname	-0.0343
27	C19    -0.7792    -2.8668    -7.6926	C.2	1	noname	-0.0457
28	C20    -1.6007    -1.8696    -8.2479	C.2	1	noname	-0.0115
29	H1    -4.0203     6.8456    -2.2772	H	1	noname	0.0279
30	H2    -3.9499     5.8835    -3.7731	H	1	noname	0.0279
31	H3    -4.7545     7.4713    -3.7731	H	1	noname	0.0279
32	H4    -6.6474     5.9876    -4.8366	H	1	noname	0.0642
33	H5    -9.2463     4.2540    -1.8476	H	1	noname	0.0639
34	H6    -7.5104     4.6614    -0.1104	H	1	noname	0.0623
35	H7    -5.3376     5.7091    -0.7255	H	1	noname	0.0625
36	H8    -9.9786     4.8796    -4.0681	H	1	noname	0.1385
37	H9    -8.2914     4.4998    -8.1382	H	1	noname	0.0449
38	H10    -6.4785     4.6788    -7.6424	H	1	noname	0.0449
39	H11    -7.9872     2.2176    -8.5675	H	1	noname	0.0449
40	H12    -6.4489     3.0299    -9.3008	H	1	noname	0.0449
41	H13    -7.6762     1.1646    -6.4261	H	1	noname	0.0449
42	H14    -5.8980     1.0881    -5.7964	H	1	noname	0.0449
43	H15    -7.4788     2.7396    -4.6264	H	1	noname	0.0449
44	H16    -5.9457     3.4609    -5.4594	H	1	noname	0.0449
45	H17    -1.0473    -2.0201    -4.3968	H	1	noname	0.0634
46	H18     0.0243    -3.7163    -5.8693	H	1	noname	0.0623
47	H19    -0.2859    -3.5918    -8.3400	H	1	noname	0.0622
48	H20    -1.7285    -1.8336    -9.3298	H	1	noname	0.0630
@<TRIPOS>BOND
1	1	2	1
2	2	3	2
3	3	4	1
4	4	5	2
5	5	6	1
6	6	7	2
7	2	7	1
8	4	8	1
9	8	9	1
10	9	10	2
11	9	11	1
12	11	12	1
13	12	13	1
14	13	14	1
15	14	15	1
16	15	16	1
17	11	16	1
18	14	17	1
19	17	18	2
20	18	19	1
21	19	20	2
22	20	21	1
23	17	21	1
24	19	22	1
25	22	23	2
26	23	24	1
27	23	25	1
28	25	26	2
29	26	27	1
30	27	28	2
31	22	28	1
32	1	29	1
33	1	30	1
34	1	31	1
35	3	32	1
36	5	33	1
37	6	34	1
38	7	35	1
39	8	36	1
40	12	37	1
41	12	38	1
42	13	39	1
43	13	40	1
44	15	41	1
45	15	42	1
46	16	43	1
47	16	44	1
48	25	45	1
49	26	46	1
50	27	47	1
51	28	48	1
@<TRIPOS>SUBSTRUCTURE
1	noname	1
