@<TRIPOS>MOLECULE

48 51 1
SMALL
USER_CHARGES
@<TRIPOS>ATOM
1	C1    -2.2331     5.2126    -0.3290	C.3	1	noname	-0.0011
2	C2    -0.7712     5.3112    -0.1129	C.2	1	noname	-0.0516
3	C3    -0.0695     4.3282     0.6220	C.2	1	noname	-0.0404
4	C4     1.3219     4.4403     0.8562	C.2	1	noname	-0.0236
5	C5     2.0073     5.5644     0.3553	C.2	1	noname	-0.0438
6	C6     1.3259     6.5410    -0.3924	C.2	1	noname	-0.0560
7	C7    -0.0543     6.4139    -0.6286	C.2	1	noname	-0.0661
8	N1     2.0108     3.5321     1.6028	N.3	1	noname	-0.1363
9	C8     1.8247     2.1787     1.6529	C.2	1	noname	0.0430
10	O1     2.2024     1.6674     2.7324	O.2	1	noname	-0.2730
11	N2     1.2784     1.3805     0.6583	N.3	1	noname	-0.0467
12	C9     0.6175     0.1197     0.9673	C.3	1	noname	0.0204
13	C10     0.9759    -1.0313    -0.0154	C.3	1	noname	0.0194
14	N3     0.9802    -0.5381    -1.3781	N.3	1	noname	-0.0505
15	C11     1.8746     0.5753    -1.6060	C.3	1	noname	0.0194
16	C12     1.3823     1.7597    -0.7398	C.3	1	noname	0.0204
17	C13     0.1273    -0.9979    -2.3648	C.2	1	noname	0.1239
18	N4     0.2138    -0.5633    -3.6462	N.2	1	noname	-0.1957
19	S1    -1.0435    -1.2741    -4.5373	S.3	1	noname	-0.1824
20	C14    -1.6897    -2.1611    -3.1762	C.2	1	noname	0.1243
21	N5    -0.8900    -1.8730    -2.1275	N.2	1	noname	-0.1509
22	C15    -2.8387    -2.9770    -3.1775	C.2	1	noname	-0.0217
23	C16    -3.9160    -2.6940    -4.0504	C.2	1	noname	-0.0197
24	C17    -5.0720    -3.4935    -4.0472	C.2	1	noname	-0.0491
25	C18    -5.1622    -4.5923    -3.1758	C.2	1	noname	-0.0402
26	C19    -4.0970    -4.8895    -2.3066	C.2	1	noname	-0.0491
27	C20    -2.9438    -4.0819    -2.3014	C.2	1	noname	-0.0197
28	H1    -2.7414     5.1783     0.6347	H	1	noname	0.0279
29	H2    -2.5769     6.0814    -0.8903	H	1	noname	0.0279
30	H3    -2.4571     4.3055    -0.8903	H	1	noname	0.0279
31	H4    -0.6113     3.4680     1.0154	H	1	noname	0.0642
32	H5     3.0740     5.6795     0.5480	H	1	noname	0.0639
33	H6     1.8687     7.3986    -0.7899	H	1	noname	0.0623
34	H7    -0.5711     7.1740    -1.2145	H	1	noname	0.0625
35	H8     2.7450     3.9057     2.1872	H	1	noname	0.1385
36	H9     1.0062    -0.1617     1.9460	H	1	noname	0.0449
37	H10    -0.4450     0.3286     0.8424	H	1	noname	0.0449
38	H11     2.0031    -1.3352     0.1857	H	1	noname	0.0449
39	H12     0.1724    -1.7668     0.0236	H	1	noname	0.0449
40	H13     2.8486     0.2602    -1.2317	H	1	noname	0.0449
41	H14     1.7556     0.8468    -2.6549	H	1	noname	0.0449
42	H15     2.1513     2.5315    -0.7711	H	1	noname	0.0449
43	H16     0.3636     1.9924    -1.0501	H	1	noname	0.0449
44	H17    -3.8546    -1.8481    -4.7351	H	1	noname	0.0629
45	H18    -5.8978    -3.2616    -4.7198	H	1	noname	0.0622
46	H19    -6.0578    -5.2137    -3.1741	H	1	noname	0.0622
47	H20    -4.1652    -5.7464    -1.6363	H	1	noname	0.0622
48	H21    -2.1285    -4.3132    -1.6160	H	1	noname	0.0629
@<TRIPOS>BOND
1	1	2	1
2	2	3	2
3	3	4	1
4	4	5	2
5	5	6	1
6	6	7	2
7	2	7	1
8	4	8	1
9	8	9	1
10	9	10	2
11	9	11	1
12	11	12	1
13	12	13	1
14	13	14	1
15	14	15	1
16	15	16	1
17	11	16	1
18	14	17	1
19	17	18	2
20	18	19	1
21	19	20	1
22	20	21	2
23	17	21	1
24	20	22	1
25	22	23	2
26	23	24	1
27	24	25	2
28	25	26	1
29	26	27	2
30	22	27	1
31	1	28	1
32	1	29	1
33	1	30	1
34	3	31	1
35	5	32	1
36	6	33	1
37	7	34	1
38	8	35	1
39	12	36	1
40	12	37	1
41	13	38	1
42	13	39	1
43	15	40	1
44	15	41	1
45	16	42	1
46	16	43	1
47	23	44	1
48	24	45	1
49	25	46	1
50	26	47	1
51	27	48	1
@<TRIPOS>SUBSTRUCTURE
1	noname	1
