@<TRIPOS>MOLECULE

48 51 1
SMALL
USER_CHARGES
@<TRIPOS>ATOM
1	C1    -1.9929     4.8825     0.3439	C.3	1	noname	-0.0011
2	C2    -0.5230     5.0395     0.4279	C.2	1	noname	-0.0516
3	C3     0.2904     4.0379     1.0047	C.2	1	noname	-0.0404
4	C4     1.6979     4.1804     1.0741	C.2	1	noname	-0.0236
5	C5     2.2823     5.3719     0.6010	C.2	1	noname	-0.0438
6	C6     1.4841     6.3815     0.0332	C.2	1	noname	-0.0560
7	C7     0.0912     6.2131    -0.0630	C.2	1	noname	-0.0661
8	N1     2.5102     3.2317     1.6301	N.3	1	noname	-0.1363
9	C8     2.3288     1.8769     1.6300	C.2	1	noname	0.0430
10	O1     2.8776     1.2993     2.5963	O.2	1	noname	-0.2730
11	N2     1.6288     1.1400     0.6884	N.3	1	noname	-0.0467
12	C9     0.9956    -0.1291     1.0197	C.3	1	noname	0.0204
13	C10     1.2692    -1.2475    -0.0261	C.3	1	noname	0.0187
14	N3     1.0977    -0.7005    -1.3525	N.3	1	noname	-0.0592
15	C11     1.9205     0.4439    -1.6630	C.3	1	noname	0.0187
16	C12     1.5355     1.5838    -0.6903	C.3	1	noname	0.0204
17	C13     0.1421    -1.1379    -2.2363	C.2	1	noname	0.1231
18	N4    -0.3309    -0.4390    -3.2941	N.2	1	noname	-0.1620
19	N5    -1.3190    -0.9415    -3.9894	N.2	1	noname	-0.1533
20	C14    -1.8066    -2.1433    -3.6104	C.2	1	noname	0.0875
21	S1    -0.7990    -2.6198    -2.2518	S.3	1	noname	-0.1570
22	C15    -2.9146    -2.8088    -4.1843	C.2	1	noname	-0.0219
23	C16    -3.7459    -2.1306    -5.1100	C.2	1	noname	-0.0223
24	C17    -4.8681    -2.7644    -5.6714	C.2	1	noname	-0.0495
25	C18    -5.1755    -4.0890    -5.3180	C.2	1	noname	-0.0430
26	C19    -4.3591    -4.7786    -4.4042	C.2	1	noname	-0.0495
27	C20    -3.2371    -4.1431    -3.8394	C.2	1	noname	-0.0223
28	H1    -2.4116     4.8378     1.3493	H	1	noname	0.0279
29	H2    -2.4192     5.7320    -0.1897	H	1	noname	0.0279
30	H3    -2.2302     3.9621    -0.1897	H	1	noname	0.0279
31	H4    -0.1770     3.1378     1.4040	H	1	noname	0.0642
32	H5     3.3605     5.5138     0.6748	H	1	noname	0.0639
33	H6     1.9466     7.2977    -0.3337	H	1	noname	0.0623
34	H7    -0.5148     6.9954    -0.5198	H	1	noname	0.0625
35	H8     3.3403     3.5709     2.0946	H	1	noname	0.1385
36	H9     1.4679    -0.4382     1.9521	H	1	noname	0.0449
37	H10    -0.0737     0.0808     0.9938	H	1	noname	0.0449
38	H11     2.3207    -1.5264     0.0427	H	1	noname	0.0449
39	H12     0.4956    -2.0079     0.0802	H	1	noname	0.0449
40	H13     2.9457     0.1429    -1.4475	H	1	noname	0.0449
41	H14     1.6425     0.7477    -2.6722	H	1	noname	0.0449
42	H15     2.2835     2.3701    -0.7912	H	1	noname	0.0449
43	H16     0.4813     1.8108    -0.8492	H	1	noname	0.0449
44	H17    -3.5183    -1.1034    -5.3951	H	1	noname	0.0629
45	H18    -5.4994    -2.2290    -6.3805	H	1	noname	0.0622
46	H19    -6.0461    -4.5809    -5.7519	H	1	noname	0.0622
47	H20    -4.5963    -5.8074    -4.1333	H	1	noname	0.0622
48	H21    -2.6140    -4.6879    -3.1302	H	1	noname	0.0629
@<TRIPOS>BOND
1	1	2	1
2	2	3	2
3	3	4	1
4	4	5	2
5	5	6	1
6	6	7	2
7	2	7	1
8	4	8	1
9	8	9	1
10	9	10	2
11	9	11	1
12	11	12	1
13	12	13	1
14	13	14	1
15	14	15	1
16	15	16	1
17	11	16	1
18	14	17	1
19	17	18	2
20	18	19	1
21	19	20	2
22	20	21	1
23	17	21	1
24	20	22	1
25	22	23	2
26	23	24	1
27	24	25	2
28	25	26	1
29	26	27	2
30	22	27	1
31	1	28	1
32	1	29	1
33	1	30	1
34	3	31	1
35	5	32	1
36	6	33	1
37	7	34	1
38	8	35	1
39	12	36	1
40	12	37	1
41	13	38	1
42	13	39	1
43	15	40	1
44	15	41	1
45	16	42	1
46	16	43	1
47	23	44	1
48	24	45	1
49	25	46	1
50	26	47	1
51	27	48	1
@<TRIPOS>SUBSTRUCTURE
1	noname	1
