@<TRIPOS>MOLECULE

42 44 1
SMALL
USER_CHARGES
@<TRIPOS>ATOM
1	C1    10.3709     8.1303    -3.1163	C.3	1	noname	-0.0011
2	C2     9.7362     8.1217    -4.4544	C.2	1	noname	-0.0521
3	C3     9.2603     6.9248    -5.0340	C.2	1	noname	-0.0421
4	C4     8.6069     6.9256    -6.2859	C.2	1	noname	-0.0246
5	C5     8.5192     8.1334    -7.0072	C.2	1	noname	-0.0456
6	C6     9.0051     9.3302    -6.4540	C.2	1	noname	-0.0566
7	C7     9.5922     9.3272    -5.1759	C.2	1	noname	-0.0675
8	N1     8.0936     5.7966    -6.8462	N.3	1	noname	-0.1393
9	C8     7.2835     4.8562    -6.2741	C.2	1	noname	0.1304
10	O1     7.0593     3.8515    -6.9873	O.2	1	noname	-0.2750
11	C9     6.6441     4.9285    -4.9271	C.3	1	noname	0.0355
12	C10     7.3186     3.9339    -3.9334	C.3	1	noname	-0.0287
13	C11     6.6504     4.0223    -2.5389	C.3	1	noname	0.0067
14	N2     5.2270     3.7625    -2.6638	N.3	1	noname	-0.0606
15	C12     4.5030     4.6846    -3.5256	C.3	1	noname	0.0067
16	C13     5.1019     4.6794    -4.9602	C.3	1	noname	-0.0287
17	C14     4.6178     2.6803    -2.0430	C.2	1	noname	0.0856
18	N3     5.3186     1.8411    -1.2258	N.2	1	noname	-0.2343
19	C15     4.7717     0.7546    -0.6246	C.2	1	noname	0.0095
20	C16     3.4164     0.4595    -0.8370	C.2	1	noname	-0.0298
21	C17     2.6836     1.3164    -1.6732	C.2	1	noname	0.0095
22	N4     3.2999     2.3851    -2.2405	N.2	1	noname	-0.2343
23	H1    10.5292     7.1048    -2.7826	H	1	noname	0.0279
24	H2    11.3294     8.6463    -3.1721	H	1	noname	0.0279
25	H3     9.7212     8.6463    -2.4093	H	1	noname	0.0279
26	H4     9.4001     5.9821    -4.5049	H	1	noname	0.0642
27	H5     8.0718     8.1420    -8.0012	H	1	noname	0.0639
28	H6     8.9266    10.2607    -7.0162	H	1	noname	0.0623
29	H7     9.9378    10.2654    -4.7418	H	1	noname	0.0625
30	H8     8.3463     5.6359    -7.8108	H	1	noname	0.1371
31	H9     6.8232     5.9601    -4.6241	H	1	noname	0.0398
32	H10     7.1163     2.9309    -4.3093	H	1	noname	0.0287
33	H11     8.3474     4.2702    -3.8043	H	1	noname	0.0287
34	H12     7.0444     3.2106    -1.9274	H	1	noname	0.0436
35	H13     6.7315     5.0532    -2.1943	H	1	noname	0.0436
36	H14     3.4904     4.2861    -3.5880	H	1	noname	0.0436
37	H15     4.6744     5.6729    -3.0989	H	1	noname	0.0436
38	H16     4.9591     3.6709    -5.3484	H	1	noname	0.0287
39	H17     4.6615     5.5306    -5.4794	H	1	noname	0.0287
40	H18     5.4042     0.1357     0.0118	H	1	noname	0.0841
41	H19     2.9487    -0.4063    -0.3681	H	1	noname	0.0655
42	H20     1.6270     1.1506    -1.8837	H	1	noname	0.0841
@<TRIPOS>BOND
1	1	2	1
2	2	3	2
3	3	4	1
4	4	5	2
5	5	6	1
6	6	7	2
7	2	7	1
8	4	8	1
9	8	9	1
10	9	10	2
11	9	11	1
12	11	12	1
13	12	13	1
14	13	14	1
15	14	15	1
16	15	16	1
17	11	16	1
18	14	17	1
19	17	18	2
20	18	19	1
21	19	20	2
22	20	21	1
23	21	22	2
24	17	22	1
25	1	23	1
26	1	24	1
27	1	25	1
28	3	26	1
29	5	27	1
30	6	28	1
31	7	29	1
32	8	30	1
33	11	31	1
34	12	32	1
35	12	33	1
36	13	34	1
37	13	35	1
38	15	36	1
39	15	37	1
40	16	38	1
41	16	39	1
42	19	40	1
43	20	41	1
44	21	42	1
@<TRIPOS>SUBSTRUCTURE
1	noname	1
