@<TRIPOS>MOLECULE

42 44 1
SMALL
USER_CHARGES
@<TRIPOS>ATOM
1	C1    -1.2861    -1.7737     5.0698	C.3	1	noname	-0.0011
2	C2    -0.1997    -2.7759     5.1717	C.2	1	noname	-0.0521
3	C3     0.4899    -3.2203     4.0227	C.2	1	noname	-0.0421
4	C4     1.5710    -4.1258     4.1119	C.2	1	noname	-0.0246
5	C5     1.8869    -4.6777     5.3696	C.2	1	noname	-0.0456
6	C6     1.1949    -4.2659     6.5229	C.2	1	noname	-0.0566
7	C7     0.1755    -3.3009     6.4288	C.2	1	noname	-0.0675
8	N1     2.2993    -4.5149     3.0264	N.3	1	noname	-0.1393
9	C8     2.8690    -3.7326     2.0582	C.2	1	noname	0.1304
10	O1     3.3697    -4.3592     1.0944	O.2	1	noname	-0.2750
11	C9     2.9544    -2.2411     2.0651	C.3	1	noname	0.0355
12	C10     1.9593    -1.6269     1.0372	C.3	1	noname	-0.0288
13	C11     2.0329    -0.0800     1.0616	C.3	1	noname	0.0053
14	N2     3.3866     0.3409     0.7370	N.3	1	noname	-0.0896
15	C12     4.3874    -0.1336     1.6909	C.3	1	noname	0.0053
16	C13     4.3898    -1.6886     1.7862	C.3	1	noname	-0.0288
17	C14     3.7290     1.0788    -0.4022	C.2	1	noname	0.0585
18	N3     5.0339     1.4302    -0.6038	N.2	1	noname	-0.2467
19	C15     5.5127     2.0955    -1.6835	C.2	1	noname	0.0263
20	C16     4.6067     2.4605    -2.6877	C.2	1	noname	-0.0049
21	N4     3.2988     2.1524    -2.5213	N.2	1	noname	-0.2399
22	C17     2.8357     1.4906    -1.4299	C.2	1	noname	0.0202
23	H1    -1.6044    -1.4800     6.0701	H	1	noname	0.0279
24	H2    -0.9231    -0.8978     4.5322	H	1	noname	0.0279
25	H3    -2.1300    -2.2061     4.5322	H	1	noname	0.0279
26	H4     0.1802    -2.8557     3.0433	H	1	noname	0.0642
27	H5     2.6724    -5.4290     5.4509	H	1	noname	0.0639
28	H6     1.4493    -4.6955     7.4918	H	1	noname	0.0623
29	H7    -0.3258    -2.9583     7.3340	H	1	noname	0.0625
30	H8     2.4340    -5.5109     2.9266	H	1	noname	0.1371
31	H9     2.6778    -1.9880     3.0886	H	1	noname	0.0398
32	H10     2.3011    -1.9363     0.0495	H	1	noname	0.0287
33	H11     0.9579    -1.8932     1.3755	H	1	noname	0.0287
34	H12     1.4045     0.2979     0.2551	H	1	noname	0.0435
35	H13     1.8595     0.2474     2.0867	H	1	noname	0.0435
36	H14     5.3472     0.1706     1.2732	H	1	noname	0.0435
37	H15     4.0667     0.2536     2.6580	H	1	noname	0.0435
38	H16     4.6760    -2.0558     0.8007	H	1	noname	0.0287
39	H17     4.9928    -1.9414     2.6583	H	1	noname	0.0287
40	H18     6.5764     2.3262    -1.7414	H	1	noname	0.0856
41	H19     4.9176     2.9812    -3.5934	H	1	noname	0.0855
42	H20     1.7648     1.2933    -1.3797	H	1	noname	0.0873
@<TRIPOS>BOND
1	1	2	1
2	2	3	2
3	3	4	1
4	4	5	2
5	5	6	1
6	6	7	2
7	2	7	1
8	4	8	1
9	8	9	1
10	9	10	2
11	9	11	1
12	11	12	1
13	12	13	1
14	13	14	1
15	14	15	1
16	15	16	1
17	11	16	1
18	14	17	1
19	17	18	2
20	18	19	1
21	19	20	2
22	20	21	1
23	21	22	2
24	17	22	1
25	1	23	1
26	1	24	1
27	1	25	1
28	3	26	1
29	5	27	1
30	6	28	1
31	7	29	1
32	8	30	1
33	11	31	1
34	12	32	1
35	12	33	1
36	13	34	1
37	13	35	1
38	15	36	1
39	15	37	1
40	16	38	1
41	16	39	1
42	19	40	1
43	20	41	1
44	22	42	1
@<TRIPOS>SUBSTRUCTURE
1	noname	1
