@<TRIPOS>MOLECULE

48 51 1
SMALL
USER_CHARGES
@<TRIPOS>ATOM
1	C1    -5.1617     1.5971     1.7662	C.3	1	noname	-0.0011
2	C2    -4.0756     2.5916     1.9301	C.2	1	noname	-0.0516
3	C3    -2.7918     2.1913     2.3575	C.2	1	noname	-0.0404
4	C4    -1.7307     3.1177     2.4790	C.2	1	noname	-0.0236
5	C5    -1.9871     4.4814     2.2314	C.2	1	noname	-0.0438
6	C6    -3.2666     4.9021     1.8264	C.2	1	noname	-0.0560
7	C7    -4.3011     3.9612     1.6659	C.2	1	noname	-0.0661
8	N1    -0.4800     2.7348     2.8647	N.3	1	noname	-0.1363
9	C8     0.1640     1.5630     2.5689	C.2	1	noname	0.0430
10	O1     1.0512     1.2703     3.4047	O.2	1	noname	-0.2730
11	N2    -0.0864     0.7232     1.4879	N.3	1	noname	-0.0467
12	C9     0.2123    -0.7000     1.5369	C.3	1	noname	0.0204
13	C10     1.0115    -1.1908     0.2983	C.3	1	noname	0.0187
14	N3     0.4630    -0.6576    -0.9319	N.3	1	noname	-0.0576
15	C11     0.2577     0.7744    -0.9646	C.3	1	noname	0.0187
16	C12    -0.6154     1.2255     0.2318	C.3	1	noname	0.0204
17	C13     0.1748    -1.4405    -2.0318	C.2	1	noname	0.1368
18	N4    -0.3084    -1.0016    -3.2120	N.2	1	noname	-0.1755
19	C14    -0.4644    -1.9102    -4.2091	C.2	1	noname	0.1056
20	N5    -0.1173    -3.1744    -3.8802	N.2	1	noname	-0.1921
21	S1     0.3939    -3.1633    -2.2593	S.3	1	noname	-0.1565
22	C15    -0.9227    -1.5395    -5.5026	C.2	1	noname	-0.0177
23	C16    -0.6898    -2.3723    -6.6258	C.2	1	noname	-0.0179
24	C17    -1.0959    -1.9798    -7.9151	C.2	1	noname	-0.0480
25	C18    -1.7515    -0.7513    -8.1039	C.2	1	noname	-0.0405
26	C19    -2.0149     0.0770    -7.0001	C.2	1	noname	-0.0480
27	C20    -1.6040    -0.3136    -5.7122	C.2	1	noname	-0.0179
28	H1    -5.5119     1.2765     2.7474	H	1	noname	0.0279
29	H2    -5.9872     2.0480     1.2154	H	1	noname	0.0279
30	H3    -4.7851     0.7352     1.2154	H	1	noname	0.0279
31	H4    -2.6157     1.1431     2.5992	H	1	noname	0.0642
32	H5    -1.1907     5.2154     2.3539	H	1	noname	0.0639
33	H6    -3.4568     5.9585     1.6368	H	1	noname	0.0623
34	H7    -5.2841     4.2957     1.3345	H	1	noname	0.0625
35	H8     0.0281     3.3953     3.4353	H	1	noname	0.1385
36	H9     0.8580    -0.8196     2.4068	H	1	noname	0.0449
37	H10    -0.7609    -1.1902     1.5090	H	1	noname	0.0449
38	H11     2.0152    -0.7712     0.3663	H	1	noname	0.0449
39	H12     0.8757    -2.2698     0.2249	H	1	noname	0.0449
40	H13     1.2483     1.2107    -0.8357	H	1	noname	0.0449
41	H14    -0.3067     0.9641    -1.8776	H	1	noname	0.0449
42	H15    -0.5402     2.3105     0.3026	H	1	noname	0.0449
43	H16    -1.5915     0.7528     0.1226	H	1	noname	0.0449
44	H17    -0.1893    -3.3318    -6.4958	H	1	noname	0.0630
45	H18    -0.9022    -2.6286    -8.7692	H	1	noname	0.0622
46	H19    -2.0551    -0.4418    -9.1040	H	1	noname	0.0622
47	H20    -2.5379     1.0226    -7.1430	H	1	noname	0.0622
48	H21    -1.8160     0.3410    -4.8668	H	1	noname	0.0630
@<TRIPOS>BOND
1	1	2	1
2	2	3	2
3	3	4	1
4	4	5	2
5	5	6	1
6	6	7	2
7	2	7	1
8	4	8	1
9	8	9	1
10	9	10	2
11	9	11	1
12	11	12	1
13	12	13	1
14	13	14	1
15	14	15	1
16	15	16	1
17	11	16	1
18	14	17	1
19	17	18	2
20	18	19	1
21	19	20	2
22	20	21	1
23	17	21	1
24	19	22	1
25	22	23	2
26	23	24	1
27	24	25	2
28	25	26	1
29	26	27	2
30	22	27	1
31	1	28	1
32	1	29	1
33	1	30	1
34	3	31	1
35	5	32	1
36	6	33	1
37	7	34	1
38	8	35	1
39	12	36	1
40	12	37	1
41	13	38	1
42	13	39	1
43	15	40	1
44	15	41	1
45	16	42	1
46	16	43	1
47	23	44	1
48	24	45	1
49	25	46	1
50	26	47	1
51	27	48	1
@<TRIPOS>SUBSTRUCTURE
1	noname	1
