@<TRIPOS>MOLECULE

49 52 1
SMALL
USER_CHARGES
@<TRIPOS>ATOM
1	C1     1.4557     0.3059    -0.1720	C.3	1	noname	0.0423
2	O1     0.0682     0.6884    -0.2418	O.3	1	noname	-0.2763
3	C2    -0.4260     1.0875     0.9730	C.2	1	noname	0.0070
4	C3    -0.4541     2.4567     1.3072	C.2	1	noname	-0.0307
5	C4    -0.9448     2.8677     2.5602	C.2	1	noname	-0.0445
6	C5    -1.4067     1.9122     3.4851	C.2	1	noname	-0.0467
7	C6    -1.3758     0.5356     3.1717	C.2	1	noname	-0.0122
8	C7    -0.9136     0.1389     1.8946	C.2	1	noname	-0.0056
9	N1    -1.8291    -0.3669     4.0917	N.3	1	noname	-0.1341
10	C8    -1.3607    -1.6301     4.3482	C.2	1	noname	0.0431
11	O2    -2.2133    -2.3505     4.9199	O.2	1	noname	-0.2730
12	N2    -0.1039    -2.1504     4.0513	N.3	1	noname	-0.0467
13	C9     0.1208    -3.5782     3.8879	C.3	1	noname	0.0204
14	C10     1.3165    -4.0974     4.7357	C.3	1	noname	0.0187
15	N3     2.4674    -3.2300     4.6028	N.3	1	noname	-0.0576
16	C11     2.2195    -1.8231     4.8300	C.3	1	noname	0.0187
17	C12     1.0769    -1.3192     3.9137	C.3	1	noname	0.0204
18	C13     3.7343    -3.6882     4.3084	C.2	1	noname	0.1368
19	N4     4.8422    -2.9253     4.2106	N.2	1	noname	-0.1755
20	C14     6.0251    -3.5541     3.9926	C.2	1	noname	0.1056
21	N5     5.9330    -4.8988     3.8799	N.2	1	noname	-0.1921
22	S1     4.2973    -5.3281     4.0602	S.3	1	noname	-0.1565
23	C15     7.2569    -2.8424     3.9292	C.2	1	noname	-0.0177
24	C16     8.4978    -3.5199     4.0381	C.2	1	noname	-0.0179
25	C17     9.7164    -2.8151     4.0001	C.2	1	noname	-0.0480
26	C18     9.7192    -1.4187     3.8441	C.2	1	noname	-0.0405
27	C19     8.5015    -0.7258     3.7405	C.2	1	noname	-0.0480
28	C20     7.2837    -1.4307     3.7832	C.2	1	noname	-0.0179
29	H1     1.7576     0.2226     0.8720	H	1	noname	0.0535
30	H2     1.5930    -0.6552    -0.6677	H	1	noname	0.0535
31	H3     2.0660     1.0608    -0.6677	H	1	noname	0.0535
32	H4    -0.0954     3.1996     0.5948	H	1	noname	0.0650
33	H5    -0.9672     3.9274     2.8146	H	1	noname	0.0624
34	H6    -1.7909     2.2406     4.4508	H	1	noname	0.0639
35	H7    -0.9335    -0.9148     1.6163	H	1	noname	0.0666
36	H8    -2.6104    -0.0612     4.6540	H	1	noname	0.1385
37	H9    -0.7818    -4.0491     4.2773	H	1	noname	0.0449
38	H10     0.3899    -3.7001     2.8387	H	1	noname	0.0449
39	H11     1.0310    -4.0319     5.7856	H	1	noname	0.0449
40	H12     1.6306    -5.0526     4.3149	H	1	noname	0.0449
41	H13     1.8734    -1.7542     5.8613	H	1	noname	0.0449
42	H14     3.1360    -1.3164     4.5277	H	1	noname	0.0449
43	H15     0.7776    -0.3339     4.2711	H	1	noname	0.0449
44	H16     1.4006    -1.4491     2.8810	H	1	noname	0.0449
45	H17     8.5153    -4.6036     4.1532	H	1	noname	0.0630
46	H18    10.6604    -3.3522     4.0918	H	1	noname	0.0622
47	H19    10.6629    -0.8748     3.8037	H	1	noname	0.0622
48	H20     8.5015     0.3582     3.6269	H	1	noname	0.0622
49	H21     6.3489    -0.8759     3.7021	H	1	noname	0.0630
@<TRIPOS>BOND
1	1	2	1
2	2	3	1
3	3	4	2
4	4	5	1
5	5	6	2
6	6	7	1
7	7	8	2
8	3	8	1
9	7	9	1
10	9	10	1
11	10	11	2
12	10	12	1
13	12	13	1
14	13	14	1
15	14	15	1
16	15	16	1
17	16	17	1
18	12	17	1
19	15	18	1
20	18	19	2
21	19	20	1
22	20	21	2
23	21	22	1
24	18	22	1
25	20	23	1
26	23	24	2
27	24	25	1
28	25	26	2
29	26	27	1
30	27	28	2
31	23	28	1
32	1	29	1
33	1	30	1
34	1	31	1
35	4	32	1
36	5	33	1
37	6	34	1
38	8	35	1
39	9	36	1
40	13	37	1
41	13	38	1
42	14	39	1
43	14	40	1
44	16	41	1
45	16	42	1
46	17	43	1
47	17	44	1
48	24	45	1
49	25	46	1
50	26	47	1
51	27	48	1
52	28	49	1
@<TRIPOS>SUBSTRUCTURE
1	noname	1
