@<TRIPOS>MOLECULE

61 68 1
SMALL
USER_CHARGES
@<TRIPOS>ATOM
1	C1    -5.4124     5.6921    -0.6207	C.3	1	noname	-0.0155
2	C2    -4.3152     5.0304     0.2806	C.3	1	noname	0.1661
3	C3    -4.5734     5.3527     1.8066	C.3	1	noname	0.1185
4	C4    -3.2460     5.3320     2.6385	C.3	1	noname	0.0415
5	C5    -2.1896     6.2493     1.9529	C.3	1	noname	0.0088
6	C6    -1.9590     5.8270     0.4766	C.3	1	noname	0.1321
7	O1    -3.1838     5.7569    -0.2594	O.3	1	noname	-0.3328
8	N1    -1.1623     4.6411     0.3336	N.3	1	noname	-0.0266
9	C7     0.1891     4.5810     0.4041	C.2	1	noname	-0.0674
10	C8     1.1225     5.6227     0.5906	C.2	1	noname	-0.0386
11	C9     2.4951     5.3177     0.6305	C.2	1	noname	-0.0474
12	C10     2.9296     3.9859     0.4847	C.2	1	noname	-0.0517
13	C11     1.9955     2.9475     0.2964	C.2	1	noname	-0.0324
14	C12     0.6185     3.2557     0.2659	C.2	1	noname	-0.0124
15	C13    -0.5373     2.4852     0.1170	C.2	1	noname	0.0128
16	C14    -0.7853     1.0961    -0.0048	C.2	1	noname	0.0243
17	C15    -2.1002     0.6339    -0.1390	C.2	1	noname	0.0168
18	C16    -3.1725     1.5498    -0.1447	C.2	1	noname	0.0020
19	C17    -4.5414     1.3672    -0.2323	C.2	1	noname	-0.0158
20	C18    -5.3039     0.1976    -0.4243	C.2	1	noname	-0.0347
21	C19    -6.7056     0.2947    -0.4169	C.2	1	noname	-0.0502
22	C20    -7.3236     1.5424    -0.2152	C.2	1	noname	-0.0489
23	C21    -6.5431     2.7015    -0.0345	C.2	1	noname	-0.0371
24	C22    -5.1282     2.6301    -0.0670	C.2	1	noname	-0.0701
25	N2    -4.1547     3.5878     0.0617	N.3	1	noname	-0.0332
26	C23    -2.9603     2.9264     0.0100	C.2	1	noname	-0.0516
27	C24    -1.6231     3.3866     0.1357	C.2	1	noname	-0.0482
28	C25    -2.1350    -0.8306    -0.2052	C.3	1	noname	0.0296
29	N3    -0.7551    -1.1311    -0.1055	N.3	1	noname	-0.0736
30	C26     0.0188    -0.0418     0.0176	C.2	1	noname	0.0212
31	O2     1.2568    -0.1202     0.1562	O.2	1	noname	-0.2945
32	N4    -2.8272     3.9185     2.8452	N.3	1	noname	-0.3141
33	C27    -1.7218     3.6532     3.7828	C.3	1	noname	-0.0160
34	O3    -5.5836     4.4361     2.3024	O.3	1	noname	-0.3749
35	C28    -6.0808     4.6326     3.6363	C.3	1	noname	0.0363
36	H1    -6.1732     6.1510     0.0109	H	1	noname	0.0278
37	H2    -4.9541     6.4550    -1.2500	H	1	noname	0.0278
38	H3    -5.8734     4.9308    -1.2500	H	1	noname	0.0278
39	H4    -5.0219     6.3341     1.9611	H	1	noname	0.0668
40	H5    -3.3608     5.7015     3.6575	H	1	noname	0.0495
41	H6    -2.6213     7.2497     1.9226	H	1	noname	0.0327
42	H7    -1.2469     6.0779     2.4725	H	1	noname	0.0327
43	H8    -1.3699     6.5725    -0.0576	H	1	noname	0.0824
44	H9     0.7862     6.6534     0.7027	H	1	noname	0.0642
45	H10     3.2239     6.1153     0.7748	H	1	noname	0.0623
46	H11     3.9949     3.7575     0.5178	H	1	noname	0.0622
47	H12     2.3340     1.9184     0.1759	H	1	noname	0.0629
48	H13    -4.8175    -0.7660    -0.5761	H	1	noname	0.0629
49	H14    -7.3133    -0.5975    -0.5676	H	1	noname	0.0622
50	H15    -8.4113     1.6114    -0.1988	H	1	noname	0.0623
51	H16    -7.0366     3.6591     0.1314	H	1	noname	0.0642
52	H17    -2.6309    -1.2162     0.6856	H	1	noname	0.0483
53	H18    -2.4774    -1.1349    -1.1943	H	1	noname	0.0483
54	H19    -0.3516    -2.0568    -0.1211	H	1	noname	0.1317
55	H20    -3.2822     3.1578     2.3611	H	1	noname	0.1222
56	H21    -2.0850     3.7404     4.8068	H	1	noname	0.0391
57	H22    -1.3389     2.6462     3.6176	H	1	noname	0.0391
58	H23    -0.9236     4.3770     3.6176	H	1	noname	0.0391
59	H24    -6.2555     3.6643     4.1052	H	1	noname	0.0529
60	H25    -5.3480     5.1913     4.2186	H	1	noname	0.0529
61	H26    -7.0159     5.1913     3.5969	H	1	noname	0.0529
@<TRIPOS>BOND
1	1	2	1
2	2	3	1
3	3	4	1
4	4	5	1
5	5	6	1
6	6	7	1
7	2	7	1
8	6	8	1
9	8	9	1
10	9	10	2
11	10	11	1
12	11	12	2
13	12	13	1
14	13	14	2
15	9	14	1
16	14	15	1
17	15	16	2
18	16	17	1
19	17	18	2
20	18	19	1
21	19	20	2
22	20	21	1
23	21	22	2
24	22	23	1
25	23	24	2
26	19	24	1
27	24	25	1
28	2	25	1
29	25	26	1
30	18	26	1
31	26	27	2
32	15	27	1
33	8	27	1
34	17	28	1
35	28	29	1
36	29	30	1
37	16	30	1
38	30	31	2
39	4	32	1
40	32	33	1
41	3	34	1
42	34	35	1
43	1	36	1
44	1	37	1
45	1	38	1
46	3	39	1
47	4	40	1
48	5	41	1
49	5	42	1
50	6	43	1
51	10	44	1
52	11	45	1
53	12	46	1
54	13	47	1
55	20	48	1
56	21	49	1
57	22	50	1
58	23	51	1
59	28	52	1
60	28	53	1
61	29	54	1
62	32	55	1
63	33	56	1
64	33	57	1
65	33	58	1
66	35	59	1
67	35	60	1
68	35	61	1
@<TRIPOS>SUBSTRUCTURE
1	noname	1
